$GROWTH ASPECTS OUTPUT FILE

*DSSAT Cropping System Model Ver. 4.8.2.000 -release  APR 27, 2025 19:38:50

*RUN   1        : 0 KG N/HA DRY             CSCER048 SWSW7501    1
 MODEL          : CSCER048 - Wheat
 EXPERIMENT     : SWSW7501 WH N RESPONSE,SWIFT CURRENT  7FE(N)*2IR  (DSSAT3)
 DATA PATH      : C:\DSSAT48\Wheat\
 TREATMENT  1   : 0 KG N/HA DRY             CSCER048
  
@YEAR DOY   DAS   DAP TMEAN TKILL  GSTD  L#SD PARID PARUD  AWAD  LAID  SAID  CAID  TWAD SDWAD  RWAD  CWAD  LWAD  SWAD  HWAD  HIAD CHWAD  EWAD RSWAD SNWPD SNWLD SNWSD  RS%D  H#AD  HWUD  T#AD  SLAD  RDPD  PTFD  SWXD WAVRD WUPRD  WFTD  WFPD  WFGD  NFTD  NFPD  NFGD NUPRD  TFPD  TFGD VRNFD DYLFD
 1975 145    13     0   6.5  -6.0  0.00  0.00  0.00  0.00   0.0  0.00 0.000  0.00    71    71     0     0     0     0     0  0.00     0     0     0     0     0     0   0.0     0     0   250   -99  0.03  0.00   3.6  99.9  1.00  0.00  0.00  0.00  0.00  0.00  0.00   0.0  0.00  0.35  0.50  0.00
 1975 146    14     1   7.5  -6.0  3.25  0.00  0.00  0.00   0.0  0.00 0.000  0.00    71    71     0     0     0     0     0  0.00     0     0     0     0     0     0   0.0     0     0   250   -99  0.03  0.00   3.6  99.9  1.00  0.00  0.00  0.00  0.00  0.00  0.00   0.0  0.00  0.25  0.50  0.00
 1975 147    15     2   8.0  -6.0  5.73  0.00  0.00  0.00   0.0  0.00 0.000  0.00    71    71     0     0     0     0     0  0.00     0     0     0     0     0     0   0.0     0     0   250   -99  0.03  0.00   3.7  99.9  1.00  0.00  0.00  0.00  0.00  0.00  0.00   0.0  0.00  0.20  0.50  0.00
 1975 148    16     3   8.5  -6.0  7.29  0.00  0.00  0.00   0.0  0.00 0.000  0.00    71    70     1     0     0     0     0  0.00     0     0     0     0     0     0   0.0     0     0   250   -99  0.04  0.00   4.5  99.9  1.00  0.00  0.00  0.00  0.00  0.00  0.00   0.0  0.00  0.15  0.45  0.00
 1975 149    17     4   8.5  -6.0  8.85  0.00  0.00  0.00   0.0  0.00 0.000  0.00    71    70     1     0     0     0     0  0.00     0     0     0     0     0 .0003   0.0     0     0   250   -99  0.06  0.00   5.1  99.9  1.00  0.00  0.00  0.00  0.00  0.00  0.00   1.4  0.00  0.15  0.40  0.00
 1975 150    18     5  12.5  -6.0 10.00  0.00  0.00  0.00   0.0  0.00 0.000  0.00    71    69     2     0     0     0     0  0.00     0     0     0     0     0 .0011   0.0     0     0   250   -99  0.07  0.00   6.8  99.9  1.00  0.00  0.00  0.00  0.00  0.00  0.00   1.4  0.00  0.00  0.38  0.00
 1975 151    19     6  12.0  -6.0 10.25  0.25  0.02  0.00   0.0  0.02 0.002  0.02    71    59     3     9     6     3     0  0.00     0     0     0     0     0 .0024   0.0     0     0   250   300  0.09  0.75   9.4  99.9  1.00  0.00  0.00  0.00  0.00  0.00  0.00   0.1  0.00  0.00  0.36  0.00
 1975 152    20     7  12.0  -6.0 10.49  0.49  0.03  2.70   4.6  0.04 0.004  0.04    75    49     4    22    12    10     0  0.00     0     0     3     0     0 .0043  15.8     0     0   250   298  0.11  0.76  11.1  99.9  1.61  0.00  0.00  0.00  0.00  0.00  0.00   0.1  0.00  0.00  0.34  0.00
 1975 153    21     8  15.5  -6.0 10.81  0.81  0.04  1.93   8.7  0.05 0.006  0.06    83    42     6    35    17    18     0  0.00     0     0    10     0     0 .0075  28.0     0     0   250   297  0.13  0.73  12.7  75.7  0.72  0.57  0.28  0.45  0.00  0.00  0.00   0.2  0.00  0.00  0.34  0.00
 1975 154    22     9  13.5  -6.0 11.09  1.09  0.06  2.43   3.8  0.07 0.008  0.08    86    32     7    47    23    24     0  0.00     0     0    12     0     0 .0112  26.4     0     0   250   297  0.15  0.75  21.6  99.9  3.00  0.00  0.00  0.00  0.10  0.10  0.10   0.1  0.00  0.00  0.33  0.00
 1975 155    23    10  11.5  -6.0 11.33  1.33  0.07  1.74   8.8  0.08 0.010  0.09    94    27     8    59    27    31     0  0.00     0     0    18     0     0 .0150  30.2     0     0   250   295  0.17  0.72  21.9  99.9  1.11  0.00  0.00  0.15  0.36  0.36  0.36   0.4  0.00  0.00  0.30  0.00
 1975 156    24    11  15.0  -6.0 11.64  1.64  0.08  1.08  10.4  0.09 0.011  0.10   103    22    10    71    32    40     0  0.00     0     0    24     0     0 .0210  33.2     0     0   250   294  0.19  0.72  24.6  69.4  0.66  0.67  0.34  0.49  0.40  0.40  0.40   0.5  0.00  0.00  0.30  0.00
 1975 157    25    12  14.5  -6.0 11.93  1.93  0.09  1.14  12.4  0.11 0.013  0.12   114    19    12    83    36    47     0  0.00     0     0    29     0     0 .0281  34.5     0     0   250   293  0.22  0.72  26.5  67.0  0.72  0.56  0.28  0.44  0.42  0.42  0.42   0.6  0.00  0.00  0.30  0.00
 1975 158    26    13  11.5  -6.0 12.09  2.09  0.09  1.58  14.2  0.11 0.013  0.13   127    18    14    95    39    56     0  0.00     0     0    37     0     0 .0348  38.6     0     0   250   292  0.23  0.72  27.3  89.7  1.14  0.00  0.00  0.12  0.42  0.42  0.42   1.0  0.00  0.00  0.27  0.00
 1975 159    27    14  11.0  -6.0 12.20  2.20  0.10  1.71  17.6  0.12 0.014  0.13   143    17    17   109    41    68     0  0.00     0     0    47     0     0 .0426  43.4     0     0   250   291  0.25  0.73  27.9  81.8  1.22  0.00  0.00  0.06  0.37  0.37  0.37   1.0  0.00  0.00  0.24  0.00
 1975 160    28    15  11.0  -6.0 12.31  2.31  0.10  1.81  21.9  0.13 0.015  0.14   162    16    21   125    43    82     0  0.00     0     0    61     0     0 .0520  48.3     0     0   250   290  0.27  0.73  28.6  71.5  1.25  0.00  0.00  0.04  0.33  0.33  0.33   0.9  0.00  0.00  0.21  0.00
 1975 161    29    16  12.5  -6.0 12.44  2.44  0.11  1.90  24.5  0.13 0.016  0.15   184    16    24   144    46    98     0  0.00     0     0    75     0     0 .0649  52.1     0     0   250   289  0.28  0.74  29.6  66.5  1.36  0.00  0.00  0.00  0.30  0.30  0.30   0.8  0.00  0.00  0.19  0.00
 1975 162    30    17  16.5  -6.0 12.61  2.61  0.11  1.95  31.7  0.14 0.017  0.16   212    15    29   168    50   118     0  0.00     0     0    94     0     0 .0850  55.7     0     0   250   288  0.31  0.74  31.1  50.7  1.16  0.00  0.00  0.11  0.28  0.28  0.28   0.6  0.00  0.00  0.19  0.00
 1975 163    31    18  13.0  -6.0 12.74  2.74  0.12  1.96  17.9  0.15 0.018  0.17   228    15    32   182    53   129     0  0.00     0     0   103     0     0 0.104  56.5     0     0   250   287  0.33  0.74  32.1  99.9  1.88  0.00  0.00  0.00  0.28  0.28  0.28   0.9  0.00  0.00  0.18  0.00
 1975 164    32    19  12.5  -6.0 12.87  2.87  0.13  2.02  19.9  0.16 0.019  0.18   246    15    35   197    56   141     0  0.00     0     0   113     0     0 0.124  57.6     0     0   250   286  0.34  0.75  35.2  99.9  1.82  0.00  0.00  0.00  0.25  0.25  0.25   0.9  0.00  0.00  0.16  0.00
 1975 165    33    20  13.0  -6.0 13.01  3.01  0.13  2.07  21.0  0.17 0.020  0.19   265    14    38   212    59   153     0  0.00     0     0   124     0     0 0.147  58.6     0     0   250   285  0.36  0.75  39.5  99.9  2.97  0.00  0.00  0.00  0.23  0.23  0.23   1.1  0.00  0.00  0.15  0.00
 1975 166    34    21  13.5  -6.0 13.15  3.15  0.14  2.14  32.0  0.18 0.022  0.20   294    14    43   237    63   174     0  0.00     0     0   143     0     0 0.173  60.5     0     0   278   284  0.38  0.75  40.0  76.2  2.14  0.00  0.00  0.00  0.21  0.21  0.21   1.7  0.00  0.00  0.14  0.00
 1975 167    35    22  13.0  -6.0 13.28  3.28  0.15  2.22  36.5  0.19 0.023  0.21   327    14    48   264    67   198     0  0.00     0     0   165     0     0 0.201  62.4     0     0   305   283  0.40  0.76  40.4  70.8  2.21  0.00  0.00  0.00  0.18  0.18  0.18   1.4  0.00  0.00  0.12  0.00
 1975 168    36    23  12.5  -6.0 13.41  3.41  0.16  2.28  31.2  0.20 0.025  0.22   355    14    53   288    71   217     0  0.00     0     0   182     0     0 0.231  63.3     0     0   332   281  0.41  0.76  44.2  95.4  3.06  0.00  0.00  0.00  0.15  0.15  0.15   1.2  0.00  0.00  0.10  0.00
 1975 169    37    24  13.5  -6.0 13.55  3.55  0.17  2.34  43.0  0.21 0.026  0.24   394    14    59   321    76   245     0  0.00     0     0   208     0     0 0.266  64.7     0     0   362   280  0.43  0.77  46.0  70.5  2.37  0.00  0.00  0.00  0.13  0.13  0.13   1.7  0.00  0.00  0.09  0.00
 1975 170    38    25  11.5  -6.0 13.66  3.66  0.17  2.40  41.2  0.22 0.028  0.25   431    14    64   353    81   272     0  0.00     0     0   232     0     0 0.300  65.8     0     0   389   279  0.45  0.77  65.0  99.9  3.04  0.00  0.00  0.00  0.11  0.11  0.11   1.6  0.00  0.00  0.06  0.00
 1975 171    39    26  12.5  -6.0 13.79  3.79  0.18  2.45  38.7  0.24 0.030  0.27   466    14    70   383    86   296     0  0.00     0     0   253     0     0 0.340  66.2     0     0   418   278  0.46  0.77  64.9  99.9  3.42  0.00  0.00  0.00  0.09  0.09  0.09   2.0  0.00  0.00  0.05  0.00
 1975 172    40    27  15.0  -6.0 13.95  3.95  0.20  2.49  64.7  0.26 0.033  0.29   525    14    78   433    93   339     0  0.00     0     0   292     0     0 0.393  67.6     0     0   453   277  0.48  0.78  61.5  64.2  2.14  0.00  0.00  0.00  0.08  0.08  0.08   1.9  0.00  0.00  0.05  0.00
 1975 173    41    28  16.0  -6.0 14.11  4.11  0.22  2.54  57.6  0.28 0.036  0.32   578    14    86   478   104   374     0  0.00     0     0   321     0     0 0.455  67.3     0     0   492   275  0.50  0.78  60.3  71.1  2.71  0.00  0.00  0.00  0.06  0.06  0.06   1.6  0.00  0.00  0.05  0.00
 1975 174    42    29  17.5  -6.0 21.14  4.29  0.23  2.59  82.4  0.31 0.040  0.35   650    14    97   539   113   426     0  0.00     0     0   368     0 2.918 0.530  68.2     0     0   535   273  0.52  0.78  60.4  48.9  2.05  0.00  0.00  0.00  0.04  0.04  0.04   1.2  0.00  0.00  0.05  0.00
 1975 175    43    30  22.5  -6.0 21.37  4.52  0.26  2.63  88.0  0.35 0.046  0.39   727    14   108   605   129   476     0  0.00     0     0   407     0 6.689 0.639  67.3     0     0   591   270  0.55  0.79  61.5  43.4  2.00  0.00  0.00  0.00  0.03  0.03  0.03   0.9  0.00  0.17  0.05  0.00
 1975 176    44    31  20.0  -6.0 21.57  4.73  0.28  2.63  76.5  0.39 0.053  0.45   793    14   117   662   147   514     0  0.00     0     0   434     0 10.06 0.747  65.7     0     0   641   268  0.58  0.79  72.6  62.3  2.72  0.00  0.00  0.00  0.03  0.03  0.03   0.9  0.00  0.00  0.05  0.00
 1975 177    45    32  14.0  -6.0 21.71  4.87  0.30  2.62  54.9  0.43 0.058  0.48   841    14   124   703   160   542     0  0.00     0     0   455     0 12.44 0.829  64.7     0     0   676   266  0.60  0.79  73.6  98.0  4.59  0.00  0.00  0.00  0.03  0.03  0.03   1.9  0.00  0.00  0.04  0.00
 1975 178    46    33  13.0  -6.0 21.84  5.01  0.32  2.65 122.3  0.46 0.063  0.52   951    14   139   798   173   625     0  0.00     0     0   530     0 14.65 0.909  66.4     0     0   709   265  0.61  0.80  70.2  43.4  2.25  0.00  0.00  0.00  0.02  0.02  0.02   1.7  0.00  0.00  0.02  0.00
 1975 179    47    34  13.5  -6.0 21.97  5.15  0.35  2.68 139.6  0.50 0.070  0.57  1077    14   156   908   192   716     0  0.00     0     0   609     0 16.37 1.003  67.1     0     0   744   263  0.63  0.80  68.8  37.6  2.23  0.00  0.00  0.00  0.01  0.01  0.01   1.3  0.00  0.00  0.01  0.00
 1975 180    48    35  15.5  -6.0 22.13  5.31  0.38  2.70 144.4  0.56 0.079  0.64  1209    14   173  1022   215   807     0  0.00     0     0   685     0 17.16 1.124  67.0     0     0   784   261  0.65  0.80  67.6  34.6  2.34  0.00  0.00  0.00  0.00  0.00  0.00   1.0  0.00  0.00  0.00  0.00
 1975 181    49    36  16.0  -6.0 22.30  5.47  0.42  2.70 155.3  0.64 0.091  0.73  1352    14   191  1146   247   899     0  0.00     0     0   756     0 17.99 1.262  65.9     0     0   825   259  0.66  0.80  66.4  31.1  2.38  0.00  0.00  0.00  0.00  0.00  0.00   0.7  0.00  0.00  0.00  0.00
 1975 182    50    37  19.0  -6.0 22.49  5.67  0.46  2.65 154.4  0.73 0.106  0.84  1493    14   209  1270   285   985     0  0.00     0     0   815     0 18.98 1.443  64.2     0     0   873   257  0.69  0.80  65.5  28.8  2.47  0.00  0.00  0.00  0.02  0.02  0.02   0.5  0.00  0.00  0.00  0.00
 1975 183    51    38  20.5  -6.0 30.53  5.88  0.50  2.51 158.5  0.82 0.122  0.94  1637    14   227  1396   322  1074     0  0.00     0     0   876     0 20.06 1.657  62.8     0     0   921   255  0.71  0.80  64.6  25.4  2.08  0.00  0.00  0.00  0.07  0.07  0.07   0.5  0.00  0.03  0.00  0.00
 1975 184    52    39  21.5  -6.0 31.65  6.10  0.54  2.40 133.7  0.92 0.138  1.06  1759    14   243  1502   362  1140     0  0.00     0     0   911     0 21.19 1.902  60.6     0     0   971   254  0.73  0.80  64.1  28.1  2.46  0.00  0.00  0.00  0.11  0.11  0.11   0.4  0.00  0.10  0.00  0.00
 1975 185    53    40  25.0  -6.0 32.94  6.35  0.58  2.29 161.9  1.01 0.155  1.16  1907    14   262  1631   400  1231     0  0.00     0     0   968     0 22.51 2.206  59.3     0     0  1052   252  0.76  0.80  64.9  21.0  1.94  0.00  0.00  0.00  0.15  0.15  0.15   0.4  0.00  0.33  0.00  0.00
 1975 186    54    41  23.5  -6.0 34.15  6.60  0.61  2.21 175.0  1.12 0.178  1.30  2067    14   282  1771   449  1322     0  0.00     0     0  1013     0 23.75 2.513  57.2     0     0  1127   249  0.79  0.81  63.7  18.9  1.96  0.00  0.00  0.00  0.18  0.18  0.18   0.3  0.00  0.23  0.00  0.00
 1975 187    55    42  25.5  -6.0 35.47  6.86  0.64  1.98 181.5  1.21 0.198  1.41  2232    14   303  1916   490  1425     0  0.00     0     0  1074     0 25.11 2.872  56.1     0     0  1127   248  0.81  0.81  65.3  16.1  1.73  0.00  0.00  0.00  0.23  0.23  0.23   0.3  0.05  0.37  0.00  0.00
 1975 188    56    43  19.0  -6.0 36.45  7.05  0.68  2.02 161.3  1.33 0.222  1.55  2380    14   321  2045   542  1502     0  0.00     0     0  1101     0 26.13 3.160  53.8     0     0  1127   246  0.83  0.81  63.7  20.5  2.87  0.00  0.00  0.00  0.25  0.25  0.25   0.3  0.00  0.00  0.00  0.00
 1975 189    57    44  17.5  -6.0 37.36  7.23  0.71  1.93 177.6  1.46 0.249  1.71  2543    14   341  2187   598  1589     0  0.00     0     0  1129     0 27.06 3.441  51.6     0     0  1123   243  0.84  0.81  61.6  17.5  2.59  0.00  0.00  0.00  0.29  0.29  0.29   0.2  0.00  0.00  0.00  0.00
 1975 190    58    45  19.0  -6.0 38.34  7.43  0.74  1.81 173.7  1.58 0.277  1.86  2702    14   361  2327   655  1671     0  0.00     0     0  1151     0 28.08 3.765  49.5     0     0  1121   242  0.86  0.81  59.5  15.7  2.01  0.00  0.00  0.00  0.33  0.33  0.33   0.2  0.00  0.00  0.00  0.00
 1975 191    59    46  17.0  -6.0 39.22  7.60  0.76  1.71 195.1  1.69 0.304  2.00  2881    14   383  2483   704  1779     0  0.00     0     0  1194     0 29.00 4.072  48.1     0     0  1120   240  0.88  0.81  56.7  13.1  1.58  0.00  0.00  0.00  0.37  0.37  0.37   0.2  0.00  0.00  0.00  0.00
 1975 192    60    47  18.0  -6.0 40.17  7.79  0.78  1.63 185.9  1.80 0.332  2.13  3051    14   404  2632   754  1879     0  0.00     0     0  1229     0 29.98 4.417  46.7     0     0  1120   239  0.90  0.81  54.0  12.2  1.32  0.00  0.00  0.00  0.40  0.40  0.40   0.2  0.00  0.00  0.00  0.00
 1975 193    61    48  20.5  -6.0 41.36  7.79  0.78  1.47 171.9  1.78 0.353  2.13  3209    14   424  2771   747  2018     0  0.00     0     0  1277     6 29.98 4.831  46.2     0     0  1120   238  0.92  0.81  51.6  10.8  0.94  0.11  0.06  0.27  0.42  0.42  0.42   0.3  0.00  0.03  0.00  0.00
 1975 194    62    49  22.0  -6.0 42.64  7.79  0.77  1.13 120.1  1.75 0.367  2.12  3320    14   436  2869   740  2117     0  0.00     0     0  1313    12 29.98 5.297  46.0     0     0  1120   237  0.93  0.82  50.7  11.3  0.69  0.61  0.31  0.47  0.40  0.40  0.40   0.3  0.00  0.13  0.00  0.00
 1975 195    63    50  23.5  -6.0 44.00  7.79  0.76  0.95 107.7  1.70 0.375  2.07  3419    14   448  2958   718  2211     0  0.00     0     0  1356    29 29.98 5.810  46.3     0     0  1120   236  0.95  0.82  50.4  10.4  0.55  0.90  0.45  0.58  0.37  0.37  0.37   0.3  0.00  0.23  0.00  0.00
 1975 196    64    51  23.5  -6.0 45.37  7.79  0.75  0.97 103.9  1.64 0.383  2.02  3515    14   458  3043   696  2302     0  0.00     0     0  1398    45 29.98 6.336  46.6     0     0  1120   235  0.97  0.82  50.4  10.9  0.54  0.92  0.46  0.59  0.33  0.33  0.33   0.6  0.00  0.23  0.00  0.00
 1975 197    65    52  19.5  -6.0 46.50  7.79  0.75  1.24 101.3  1.62 0.395  2.01  3610    14   467  3128   690  2387     0  0.00     0     0  1429    51 29.98 6.783  46.4     0     0  1120   234  0.99  0.84  53.0  16.3  0.64  0.71  0.36  0.50  0.29  0.29  0.29   0.7  0.00  0.00  0.00  0.00
 1975 198    66    53  19.0  -6.0 47.61  7.79  0.74  1.78 185.0  1.60 0.420  2.02  3784    14   483  3287   684  2547     0  0.00     0     0  1482    57 29.98 7.227  45.9     0     0  1120   233  1.00  0.86  50.8  12.3  0.88  0.25  0.12  0.33  0.25  0.25  0.25   0.4  0.00  0.00  0.00  0.00
 1975 199    67    54  18.0  -6.0 48.65  7.79  0.73  0.97  87.7  1.55 0.426  1.97  3865    14   491  3360   664  2625     0  0.00     0     0  1518    71 29.98 7.661  46.2     0     0  1120   233  1.02  0.83  50.8  14.6  0.46  1.00  0.54  0.65  0.22  0.22  0.22   0.4  0.00  0.00  0.00  0.00
 1975 200    68    55  18.0  -6.0 49.70  7.79  0.72  0.91  84.3  1.50 0.432  1.93  3944    14   499  3431   645  2669     0  0.00    32    32  1553    85 29.98 8.103  46.4     0     0  1120   232  1.03  0.83  51.2  14.5  0.41  1.00  0.59  0.68  0.18  0.18  0.18   1.2  0.00  0.00  0.00  0.00
 1975 201    69    56  19.0  -6.0 52.77  7.79  0.71  0.82  81.2  1.45 0.438  1.88  4019    14   507  3498   625  2665     0  0.00   109    63  1587    98 29.98 8.577  46.7     0     0  1120   231  1.05  0.83  51.7  13.1  0.35  1.00  0.65  0.73  0.14  0.14  0.14   2.0  0.00  0.00  0.00  0.00
 1975 202    70    57  19.0  -6.0 56.57  7.79  0.70  0.83  81.1  1.40 0.446  1.85  4095    14   514  3567   609  2665     0  0.00   183    94  1620   110 29.98 9.058  46.9     0     0  1120   230  1.06  0.85  52.4  13.6  0.35  1.00  0.65  0.73  0.11  0.11  0.11   2.0  0.00  0.00  0.00  0.00
 1975 203    71    58  19.0  -6.0 60.93  7.79  0.69  0.95  81.0  1.36 0.455  1.82  4171    14   519  3637   593  2666     0  0.00   256   126  1653   122 29.98 9.546  47.0     0     0  1120   230  1.08  0.87  53.0  15.8  0.39  1.00  0.61  0.70  0.09  0.09  0.09   2.0  0.00  0.00  0.00  0.00
 1975 204    72    59  16.5  -6.0 69.18  7.79  0.66  0.88  85.1  1.26 0.465  1.73  4252    14   525  3712   551  2678     0  0.00   333   160  1703   150 29.98 9.975  47.8     0     0  1120   229  1.09  0.88  53.4  14.9  0.35  1.00  0.65  0.73  0.08  0.08  0.08   2.0  0.00  0.00  0.00  0.00
 1975 205    73    60  22.5  -6.0 71.60  7.79  0.63  0.83  75.7  1.17 0.473  1.65  4323    14   529  3780   515  2683     0  0.00   408   191  1748   174 29.98 10.57  48.5     0     0  1120   228  1.11  0.89  54.5  14.3  0.33  1.00  0.67  0.75  0.06  0.06  0.06   2.0  0.00  0.17  0.00  0.00
 1975 206    74    61  23.5  -6.0 73.41  7.79  0.60  0.97  75.2  1.07 0.469  1.54  4396    14   532  3849   469  2687    26  0.01   463   217  1821   204 29.98 11.19  50.3 10494 .0002  1120   227  1.13  0.92  55.7  16.9  0.37  1.00  0.63  0.71  0.04  0.04  0.04   2.0  0.00  0.23  0.00  0.00
 1975 207    75    62  21.5  -6.0 75.07  7.79  0.56  1.10  78.5  0.96 0.466  1.42  4472    14   534  3923   422  2717    76  0.02   473   267  1876   235 29.98 11.76  51.9 10494 .0007  1119   226  1.15  0.94  56.6  19.4  0.41  1.00  0.59  0.68  0.02  0.02  0.02   2.0  0.00  0.10  0.00  0.00
 1975 208    76    63  25.5  -6.0 77.03  7.79  0.52  0.80  62.6  0.86 0.461  1.32  4533    14   535  3983   379  2702   165  0.04   474   356  1875   263 29.98 12.44  52.7 10494 .0016  1118   226  1.17  0.95  58.0  15.4  0.31  1.00  0.69  0.76  0.00  0.00  0.00   0.2  0.05  0.37  0.00  0.00
 1975 209    77    64  26.5  -6.0 79.03  7.79  0.47  0.87  60.1  0.74 0.457  1.20  4591    14   535  4042   330  2657   290  0.07   470   481  1840   295 29.98 13.14  53.2 10494 .0028  1115   224  1.19  0.98  59.4  19.4  0.38  1.00  0.62  0.71  0.00  0.00  0.00   0.1  0.15  0.43  0.00  0.00
 1975 210    78    65  25.0  -6.0 80.33  7.79  0.41  1.33  59.1  0.63 0.453  1.08  4649    14   535  4100   281  2586   445  0.11   462   636  1775   326 29.98 13.81  53.3 10494 .0042  1113   223  1.21  0.98  63.2  33.1  0.60  0.81  0.40  0.54  0.17  0.17  0.17   0.0  0.00  0.33  0.00  0.00
 1975 211    79    66  16.5  -6.0 80.78  7.79  0.38  1.84  63.3  0.55 0.451  1.01  4712    14   536  4162   249  2547   562  0.13   457   753  1740   346 29.98 14.25  53.5 10494 .0054  1110   222  1.23  0.98  64.0  51.5  2.03  0.00  0.00  0.00  0.32  0.32  0.32   0.1  0.00  0.00  0.00  0.00
 1975 212    80    67  12.0  -6.0 81.10  7.79  0.36  1.51  42.4  0.52 0.449  0.97  4754    14   536  4203   235  2532   625  0.15   456   816  1727   356 29.98 14.57  53.6 10494 .0060  1109   222  1.24  0.98  85.0  93.5  1.88  0.00  0.00  0.00  0.44  0.44  0.44   0.1  0.00  0.00  0.00  0.00
 1975 213    81    68  13.0  -6.0 81.45  7.79  0.34  1.24  33.6  0.50 0.447  0.94  4787    14   536  4236   224  2499   700  0.17   450   891  1692   363 29.98 14.92  53.3 10494 .0067  1107   221  1.25  0.98  83.7  88.2  6.23  0.00  0.00  0.00  0.54  0.54  0.54   0.8  0.00  0.00  0.00  0.00
 1975 214    82    69  15.5  -6.0 81.87  7.79  0.33  1.23  56.2  0.47 0.445  0.91  4842    14   536  4291   213  2458   807  0.19   444   998  1648   370 29.98 15.33  52.9 10494 .0077  1105   221  1.26  0.98  80.2  47.1  3.48  0.00  0.00  0.00  0.54  0.54  0.54   0.5  0.00  0.00  0.00  0.00
 1975 215    83    70  15.0  -6.0 82.27  7.79  0.31  1.01  29.5  0.43 0.443  0.87  4871    14   536  4320   195  2402   907  0.21   435  1098  1589   382 29.98 15.74  52.4 10494 .0086  1102   220  1.27  0.98  80.0  76.0  5.59  0.00  0.00  0.00  0.63  0.63  0.63   0.3  0.00  0.00  0.00  0.00
 1975 216    84    71  13.5  -6.0 82.64  7.79  0.28  0.83  27.3  0.39 0.441  0.83  4897    14   536  4347   177  2361   987  0.23   429  1178  1546   392 29.98 16.10  52.1 10494 .0094  1100   219  1.28  0.98  79.4  69.6  5.16  0.00  0.00  0.00  0.69  0.69  0.69   0.3  0.00  0.00  0.00  0.00
 1975 217    85    72  23.5  -6.0 83.27  7.79  0.26  0.68  26.6  0.35 0.437  0.79  4923    14   536  4373   162  2246  1154  0.26   409  1345  1415   402 29.98 16.73  50.2 10494 .0110  1096   219  1.30  0.98  79.4  47.5  3.52  0.00  0.00  0.00  0.75  0.75  0.75   0.1  0.00  0.23  0.00  0.00
 1975 218    86    73  22.0  -6.0 83.86  7.79  0.22  0.57  21.4  0.30 0.434  0.73  4944    14   536  4394   137  2190  1248  0.28   400  1439  1357   418 29.98 17.32  49.7 10494 .0119  1092   218  1.32  0.98  79.6  51.1  3.77  0.00  0.00  0.00  0.79  0.79  0.79   0.1  0.00  0.13  0.00  0.00
 1975 219    87    74  14.5  -6.0 84.25  7.79  0.19  0.48   7.4  0.25 0.432  0.68  4951    14   535  4401   114  2180  1274  0.29   401  1465  1353   432 29.98 17.71  50.2 10494 .0121  1089   217  1.33  0.98  89.3  99.9  7.42  0.00  0.00  0.00  0.82  0.82  0.82   0.1  0.00  0.00  0.00  0.00
 1975 220    88    75  17.0  -6.0 84.71  7.79  0.17  0.39   9.3  0.21 0.430  0.64  4960    14   535  4410    98  2171  1299  0.29   400  1490  1347   442 29.98 18.16  50.4 10494 .0124  1085   216  1.35  0.98  85.7  93.8  6.33  0.00  0.00  0.00  0.86  0.86  0.86   0.1  0.00  0.00  0.00  0.00
 1975 221    89    76  15.0  -6.0 85.11  7.79  0.14  0.32   7.1  0.17 0.428  0.60  4966    14   535  4417    81  2156  1329  0.30   399  1520  1334   453 29.98 18.56  50.6 10494 .0127  1081   215  1.36  0.98  85.6  99.9  7.06  0.00  0.00  0.00  0.88  0.88  0.88   0.2  0.00  0.00  0.00  0.00
 1975 222    90    77  17.0  -6.0 85.57  7.79  0.11  0.27   3.9  0.14 0.426  0.57  4970    14   534  4421    65  2145  1351  0.31   398  1542  1326   462 29.98 19.02  50.8 10494 .0129  1077   214  1.37  0.98  85.9  99.9 10.06  0.00  0.00  0.00  0.90  0.90  0.90   0.1  0.00  0.00  0.00  0.00
 1975 223    91    78  17.0  -6.0 86.03  7.79  0.08  0.22   2.4  0.10 0.424  0.53  4972    14   534  4424    48  2139  1366  0.31   399  1557  1324   473 29.98 19.47  51.2 10494 .0130  1072   214  1.39  0.98  88.5  99.9 13.99  0.00  0.00  0.00  0.92  0.92  0.92   0.1  0.00  0.00  0.00  0.00
 1975 224    92    79  14.0  -6.0 86.41  7.79  0.05  0.19   2.2  0.07 0.422  0.49  4973    14   533  4426    31  2130  1384  0.31   399  1575  1319   483 29.98 19.84  51.5 10494 .0132  1068   213  1.40  0.98  88.6  99.9 13.07  0.00  0.00  0.00  0.93  0.93  0.93   0.1  0.00  0.00  0.00  0.00
 1975 225    93    80  15.5  -6.0 86.82  7.79  0.03  0.15   1.0  0.04 0.420  0.46  4974    14   533  4427    17  2125  1395  0.32   399  1586  1317   491 29.98 20.26  51.8 10494 .0133  1064   212  1.41  0.98  89.2  99.9 15.00  0.00  0.00  0.00  0.94  0.94  0.94   0.1  0.00  0.00  0.00  0.00
 1975 226    94    81  12.0  -6.0 87.15  7.79  0.00  0.13   0.5  0.00 0.419  0.42  4974    14   533  4427     1  2119  1407  0.32   399  1598  1314   500 29.98 20.58  52.1 10494 .0134  1060   210  1.42  0.98  89.7  99.9 15.00  0.00  0.00  0.00  0.95  0.95  0.95   0.1  0.00  0.00  0.00  0.00
 1975 227    95    82  17.0  -6.0 87.60  7.79  0.00  0.11   0.0  0.00 0.417  0.42  4974    14   532  4427     0  2113  1414  0.32   399  1605  1308   501 29.98 21.03  52.1 10494 .0135  1055   -99  1.43  0.98  90.8  99.9 15.00  0.00  0.00  0.00  0.96  0.96  0.96   0.0  0.00  0.00  0.00  0.00
 1975 228    96    83  11.0  -6.0 87.90  7.79  0.00  0.00   0.0  0.00 0.416  0.42  4973    14   532  4427     0  2105  1424  0.32   397  1615  1298   501 29.98 21.32  51.9 10494 .0136  1051   -99  1.43  0.98  90.2  99.9 15.00  0.00  0.00  0.00  0.00  0.00  0.00   0.1  0.00  0.00  0.00  0.00
 1975 229    97    84  10.5  -6.0 88.18  7.79  0.00  0.00   0.0  0.00 0.414  0.41  4973    14   532  4427     0  2097  1434  0.32   395  1625  1288   501 29.98 21.60  51.7 10494 .0137  1048   -99  1.43  0.98  94.7  99.9 15.00  0.00  0.00  0.00  0.00  0.00  0.00   0.1  0.00  0.00  0.00  0.00
 1975 230    98    85  11.0  -6.0 88.48  7.79  0.00  0.00   0.0  0.00 0.412  0.41  4973    14   531  4427     0  2082  1447  0.33   394  1638  1276   505 29.98 21.89  51.5 10494 .0138  1044   -99  1.43  0.98  93.7  99.9 15.00  0.00  0.00  0.00  0.00  0.00  0.00   0.1  0.00  0.00  0.00  0.00
 1975 231    99    86  12.0  -6.0 88.80  7.79  0.00  0.00   0.0  0.00 0.410  0.41  4973    14   531  4427     0  2070  1455  0.33   393  1646  1267   509 29.98 22.21  51.4 10494 .0139  1040   -99  1.43  0.98  97.9  99.9 15.00  0.00  0.00  0.00  0.00  0.00  0.00   0.1  0.00  0.00  0.00  0.00
 1975 232   100    87  12.5  -6.0 89.14  7.79  0.00  0.00   0.0  0.00 0.408  0.41  4972    14   531  4427     0  2054  1469  0.33   392  1660  1253   513 29.98 22.54  51.2 10494 .0140  1035   -99  1.43  0.98  98.3  99.9 15.00  0.00  0.00  0.00  0.00  0.00  0.00   0.1  0.00  0.00  0.00  0.00
 1975 233   101    88  16.0  -6.0 89.57  7.79  0.00  0.00   0.0  0.00 0.405  0.40  4972    14   530  4427     0  2032  1488  0.34   390  1679  1234   518 29.98 22.97  51.0 10494 .0142  1030   -99  1.43  0.98 110.9  99.9 15.00  0.00  0.00  0.00  0.00  0.00  0.00   0.1  0.00  0.00  0.00  0.00
 1975 234   102    89  19.5  -6.0 90.18  7.79  0.00  0.00   0.0  0.00 0.401  0.40  4971    14   530  4427     0  2003  1514  0.34   386  1705  1208   524 29.98 23.49  50.6 10494 .0144  1023   -99  1.43  0.98 106.2  99.9 15.00  0.00  0.00  0.00  0.00  0.00  0.00   0.1  0.00  0.00  0.00  0.00

*DSSAT Cropping System Model Ver. 4.8.2.000 -release  APR 27, 2025 19:38:50

*RUN   2        : 20.5 KG N/HA DRY          CSCER048 SWSW7501    2
 MODEL          : CSCER048 - Wheat
 EXPERIMENT     : SWSW7501 WH N RESPONSE,SWIFT CURRENT  7FE(N)*2IR  (DSSAT3)
 DATA PATH      : C:\DSSAT48\Wheat\
 TREATMENT  2   : 20.5 KG N/HA DRY          CSCER048
  
@YEAR DOY   DAS   DAP TMEAN TKILL  GSTD  L#SD PARID PARUD  AWAD  LAID  SAID  CAID  TWAD SDWAD  RWAD  CWAD  LWAD  SWAD  HWAD  HIAD CHWAD  EWAD RSWAD SNWPD SNWLD SNWSD  RS%D  H#AD  HWUD  T#AD  SLAD  RDPD  PTFD  SWXD WAVRD WUPRD  WFTD  WFPD  WFGD  NFTD  NFPD  NFGD NUPRD  TFPD  TFGD VRNFD DYLFD
 1975 145    13     0   6.5  -6.0  0.00  0.00  0.00  0.00   0.0  0.00 0.000  0.00    71    71     0     0     0     0     0  0.00     0     0     0     0     0     0   0.0     0     0   250   -99  0.03  0.98   3.6  99.9  1.00  0.00  0.00  0.00  0.00  0.00  0.00   0.0  0.00  0.35  0.50  0.00
 1975 146    14     1   7.5  -6.0  3.25  0.00  0.00  0.00   0.0  0.00 0.000  0.00    71    71     0     0     0     0     0  0.00     0     0     0     0     0     0   0.0     0     0   250   -99  0.03  0.98   3.6  99.9  1.00  0.00  0.00  0.00  0.00  0.00  0.00   0.0  0.00  0.25  0.50  0.00
 1975 147    15     2   8.0  -6.0  5.73  0.00  0.00  0.00   0.0  0.00 0.000  0.00    71    71     0     0     0     0     0  0.00     0     0     0     0     0     0   0.0     0     0   250   -99  0.03  0.98   3.7  99.9  1.00  0.00  0.00  0.00  0.00  0.00  0.00   0.0  0.00  0.20  0.50  0.00
 1975 148    16     3   8.5  -6.0  7.29  0.00  0.00  0.00   0.0  0.00 0.000  0.00    71    70     1     0     0     0     0  0.00     0     0     0     0     0     0   0.0     0     0   250   -99  0.04  0.98   4.5  99.9  1.00  0.00  0.00  0.00  0.00  0.00  0.00   0.0  0.00  0.15  0.45  0.00
 1975 149    17     4   8.5  -6.0  8.85  0.00  0.00  0.00   0.0  0.00 0.000  0.00    71    70     1     0     0     0     0  0.00     0     0     0     0     0 .0003   0.0     0     0   250   -99  0.06  0.98   5.1  99.9  1.00  0.00  0.00  0.00  0.00  0.00  0.00   2.0  0.00  0.15  0.40  0.00
 1975 150    18     5  12.5  -6.0 10.00  0.00  0.00  0.00   0.0  0.00 0.000  0.00    71    69     2     0     0     0     0  0.00     0     0     0     0     0 .0011   0.0     0     0   250   -99  0.07  0.98   6.8  99.9  1.00  0.00  0.00  0.00  0.00  0.00  0.00   2.0  0.00  0.00  0.38  0.00
 1975 151    19     6  12.0  -6.0 10.25  0.25  0.02  0.00   0.0  0.02 0.002  0.02    71    59     3     9     6     3     0  0.00     0     0     0     0     0 .0024   0.0     0     0   250   300  0.09  0.75   9.4  99.9  1.00  0.00  0.00  0.00  0.00  0.00  0.00   0.1  0.00  0.00  0.36  0.00
 1975 152    20     7  12.0  -6.0 10.49  0.49  0.03  2.70   4.6  0.04 0.004  0.04    75    49     4    22    12    10     0  0.00     0     0     3     0     0 .0043  15.8     0     0   250   298  0.11  0.76  11.0  99.9  1.61  0.00  0.00  0.00  0.00  0.00  0.00   0.2  0.00  0.00  0.34  0.00
 1975 153    21     8  15.5  -6.0 10.81  0.81  0.04  1.93   8.7  0.05 0.006  0.06    83    42     6    35    17    18     0  0.00     0     0    10     0     0 .0075  28.0     0     0   250   297  0.13  0.73  12.7  75.7  0.72  0.57  0.28  0.45  0.00  0.00  0.00   0.3  0.00  0.00  0.34  0.00
 1975 154    22     9  13.5  -6.0 11.09  1.09  0.06  2.58   4.0  0.07 0.008  0.08    87    32     7    48    24    24     0  0.00     0     0    12     0     0 .0112  25.4     0     0   250   297  0.15  0.75  21.6  99.9  3.00  0.00  0.00  0.00  0.04  0.04  0.04   0.1  0.00  0.00  0.33  0.00
 1975 155    23    10  11.5  -6.0 11.33  1.33  0.07  1.86   9.5  0.08 0.010  0.09    95    27     8    60    28    32     0  0.00     0     0    18     0     0 .0150  29.4     0     0   250   295  0.17  0.73  21.9  99.9  1.09  0.00  0.00  0.16  0.31  0.31  0.31   0.7  0.00  0.00  0.30  0.00
 1975 156    24    11  15.0  -6.0 11.64  1.64  0.08  1.23  12.2  0.10 0.011  0.11   106    22    10    73    32    41     0  0.00     0     0    25     0     0 .0211  33.9     0     0   250   294  0.19  0.73  24.6  67.7  0.66  0.69  0.34  0.50  0.31  0.31  0.31   0.8  0.00  0.00  0.30  0.00
 1975 157    25    12  14.5  -6.0 11.93  1.93  0.09  1.43  15.9  0.11 0.013  0.12   120    19    13    88    37    51     0  0.00     0     0    33     0     0 .0284  36.9     0     0   250   293  0.22  0.73  26.5  65.7  0.73  0.53  0.27  0.43  0.28  0.28  0.28   0.9  0.00  0.00  0.30  0.00
 1975 158    26    13  11.5  -6.0 12.09  2.09  0.10  2.06  19.0  0.12 0.014  0.13   137    18    16   104    40    63     0  0.00     0     0    43     0     0 .0357  41.6     0     0   250   292  0.23  0.74  27.2  88.0  1.20  0.00  0.00  0.08  0.24  0.24  0.24   1.4  0.00  0.00  0.27  0.00
 1975 159    27    14  11.0  -6.0 12.20  2.20  0.10  2.15  22.9  0.13 0.015  0.14   158    17    19   122    43    79     0  0.00     0     0    57     0     0 .0442  46.9     0     0   250   291  0.25  0.74  27.9  78.9  1.30  0.00  0.00  0.00  0.20  0.20  0.20   1.4  0.00  0.00  0.24  0.00
 1975 160    28    15  11.0  -6.0 12.31  2.31  0.11  2.22  28.0  0.13 0.016  0.15   183    16    23   143    46    97     0  0.00     0     0    75     0     0 .0547  52.1     0     0   250   290  0.27  0.75  28.6  68.3  1.34  0.00  0.00  0.00  0.18  0.18  0.18   1.3  0.00  0.00  0.21  0.00
 1975 161    29    16  12.5  -6.0 12.44  2.44  0.11  2.29  31.1  0.14 0.017  0.16   211    16    28   167    49   118     0  0.00     0     0    94     0     0 .0693  56.0     0     0   250   289  0.28  0.75  29.6  63.0  1.46  0.00  0.00  0.00  0.15  0.15  0.15   1.0  0.00  0.00  0.19  0.00
 1975 162    30    17  16.5  -6.0 12.61  2.61  0.12  2.35  40.5  0.15 0.018  0.17   247    15    34   198    53   145     0  0.00     0     0   119     0     0 .0924  59.9     0     0   250   288  0.31  0.75  31.0  47.7  1.01  0.00  0.00  0.23  0.13  0.13  0.13   0.8  0.00  0.00  0.19  0.00
 1975 163    31    18  13.0  -6.0 12.74  2.74  0.13  2.36  22.9  0.16 0.020  0.18   268    15    37   216    57   159     0  0.00     0     0   131     0     0 0.114  60.7     0     0   250   287  0.33  0.76  32.0  96.1  1.63  0.00  0.00  0.00  0.13  0.13  0.13   1.0  0.00  0.00  0.18  0.00
 1975 164    32    19  12.5  -6.0 12.87  2.87  0.14  2.41  25.4  0.17 0.021  0.19   291    15    41   236    60   175     0  0.00     0     0   145     0     0 0.138  61.7     0     0   250   286  0.34  0.76  35.2  98.8  1.56  0.00  0.00  0.00  0.11  0.11  0.11   1.0  0.00  0.00  0.16  0.00
 1975 165    33    20  13.0  -6.0 13.01  3.01  0.14  2.45  26.7  0.18 0.022  0.20   315    14    45   256    64   192     0  0.00     0     0   160     0     0 0.164  62.6     0     0   250   285  0.36  0.76  39.4  99.9  3.22  0.00  0.00  0.00  0.09  0.09  0.09   1.4  0.00  0.00  0.15  0.00
 1975 166    34    21  13.5  -6.0 13.15  3.15  0.15  2.49  40.1  0.19 0.024  0.22   351    14    50   287    68   219     0  0.00     0     0   185     0     0 0.194  64.4     0     0   282   284  0.38  0.77  39.9  70.6  2.32  0.00  0.00  0.00  0.08  0.08  0.08   2.0  0.00  0.00  0.14  0.00
 1975 167    35    22  13.0  -6.0 13.28  3.28  0.16  2.53  45.1  0.21 0.025  0.23   392    14    56   322    73   249     0  0.00     0     0   213     0     0 0.227  66.1     0     0   313   282  0.40  0.77  40.4  65.4  2.39  0.00  0.00  0.00  0.06  0.06  0.06   2.0  0.00  0.00  0.12  0.00
 1975 168    36    23  12.5  -6.0 13.41  3.41  0.17  2.57  38.1  0.22 0.027  0.25   427    14    62   351    78   273     0  0.00     0     0   235     0     0 0.262  66.9     0     0   344   281  0.41  0.77  44.1  87.9  3.31  0.00  0.00  0.00  0.05  0.05  0.05   1.7  0.00  0.00  0.10  0.00
 1975 169    37    24  13.5  -6.0 13.55  3.55  0.18  2.60  51.9  0.23 0.029  0.26   474    14    69   391    83   308     0  0.00     0     0   266     0     0 0.304  68.0     0     0   377   280  0.43  0.77  45.8  64.7  2.56  0.00  0.00  0.00  0.04  0.04  0.04   2.0  0.00  0.00  0.09  0.00
 1975 170    38    25  11.5  -6.0 13.66  3.66  0.19  2.63  49.2  0.25 0.031  0.28   519    14    75   429    89   341     0  0.00     0     0   296     0     0 0.344  69.0     0     0   406   279  0.45  0.78  64.9  99.9  3.26  0.00  0.00  0.00  0.03  0.03  0.03   2.0  0.00  0.00  0.06  0.00
 1975 171    39    26  12.5  -6.0 13.79  3.79  0.20  2.65  45.8  0.26 0.033  0.30   561    14    81   465    95   370     0  0.00     0     0   322     0     0 0.390  69.3     0     0   438   277  0.46  0.78  64.8  99.9  3.66  0.00  0.00  0.00  0.02  0.02  0.02   2.0  0.00  0.00  0.05  0.00
 1975 172    40    27  15.0  -6.0 13.95  3.95  0.22  2.68  75.9  0.29 0.036  0.32   630    14    91   525   103   421     0  0.00     0     0   369     0     0 0.451  70.4     0     0   476   276  0.48  0.78  61.3  58.8  2.29  0.00  0.00  0.00  0.01  0.01  0.01   2.0  0.00  0.00  0.05  0.00
 1975 173    41    28  16.0  -6.0 21.07  4.11  0.23  2.70  66.9  0.31 0.040  0.35   691    14   100   577   115   463     0  0.00     0     0   404     0     0 0.524  70.0     0     0   517   275  0.50  0.79  60.2  65.1  2.89  0.00  0.00  0.00  0.00  0.00  0.00   2.0  0.00  0.00  0.05  0.00
 1975 174    42    29  17.5  -6.0 21.25  4.29  0.26  2.70  93.9  0.36 0.046  0.40   774    14   111   648   131   517     0  0.00     0     0   449     0 2.960 0.611  69.3     0     0   562   272  0.52  0.79  60.2  44.8  2.18  0.00  0.00  0.00  0.00  0.00  0.00   1.5  0.00  0.00  0.05  0.00
 1975 175    43    30  22.5  -6.0 21.48  4.52  0.29  2.70 102.3  0.40 0.053  0.45   863    14   124   725   148   577     0  0.00     0     0   499     0 6.791 0.737  68.8     0     0   620   270  0.55  0.79  61.1  38.2  2.05  0.00  0.00  0.00  0.00  0.00  0.00   1.4  0.00  0.17  0.05  0.00
 1975 176    44    31  20.0  -6.0 21.69  4.73  0.32  2.70  88.0  0.45 0.060  0.51   941    14   135   791   167   625     0  0.00     0     0   535     0 10.22 0.861  67.6     0     0   671   267  0.58  0.79  72.2  55.5  2.81  0.00  0.00  0.00  0.00  0.00  0.00   1.4  0.00  0.00  0.05  0.00
 1975 177    45    32  14.0  -6.0 21.83  4.87  0.33  2.70  62.6  0.48 0.065  0.54   996    14   143   839   180   659     0  0.00     0     0   560     0 12.62 0.955  66.8     0     0   707   266  0.60  0.80  73.2  88.5  4.80  0.00  0.00  0.00  0.00  0.00  0.00   2.0  0.00  0.00  0.04  0.00
 1975 178    46    33  13.0  -6.0 21.96  5.01  0.35  2.70 136.8  0.51 0.070  0.58  1119    14   159   945   193   753     0  0.00     0     0   646     0 14.87 1.048  68.4     0     0   741   265  0.61  0.80  69.8  39.4  2.37  0.00  0.00  0.00  0.00  0.00  0.00   2.0  0.00  0.00  0.02  0.00
 1975 179    47    34  13.5  -6.0 22.10  5.15  0.38  2.70 153.5  0.56 0.077  0.63  1258    14   178  1066   212   855     0  0.00     0     0   737     0 16.67 1.156  69.1     0     0   776   263  0.63  0.80  68.3  34.2  2.35  0.00  0.00  0.00  0.00  0.00  0.00   2.0  0.00  0.00  0.01  0.00
 1975 180    48    35  15.5  -6.0 22.26  5.31  0.42  2.70 156.2  0.63 0.089  0.72  1401    14   196  1190   242   948     0  0.00     0     0   810     0 17.54 1.293  68.1     0     0   815   261  0.65  0.80  67.0  31.8  2.48  0.00  0.00  0.00  0.00  0.00  0.00   1.4  0.00  0.00  0.00  0.00
 1975 181    49    36  16.0  -6.0 22.43  5.47  0.45  2.70 170.2  0.71 0.101  0.81  1557    14   216  1326   275  1052     0  0.00     0     0   893     0 18.46 1.450  67.3     0     0   857   259  0.66  0.80  65.7  28.1  2.47  0.00  0.00  0.00  0.00  0.00  0.00   1.2  0.00  0.00  0.00  0.00
 1975 182    50    37  19.0  -6.0 22.62  5.67  0.50  2.70 170.3  0.80 0.116  0.92  1712    14   236  1463   313  1150     0  0.00     0     0   964     0 19.56 1.656  65.9     0     0   905   257  0.69  0.81  64.7  26.4  2.05  0.00  0.00  0.00  0.00  0.00  0.00   0.9  0.00  0.00  0.00  0.00
 1975 183    51    38  20.5  -6.0 30.53  5.88  0.54  2.70 182.7  0.90 0.133  1.03  1880    14   256  1610   353  1256     0  0.00     0     0  1041     0 20.74 1.897  64.7     0     0   958   255  0.71  0.81  63.7  23.4  1.89  0.00  0.00  0.00  0.00  0.00  0.00   0.7  0.00  0.03  0.00  0.00
 1975 184    52    39  21.5  -6.0 31.65  6.10  0.58  2.67 158.5  1.01 0.152  1.16  2025    14   274  1737   397  1340     0  0.00     0     0  1089     0 21.99 2.172  62.7     0     0  1013   254  0.73  0.81  63.1  26.0  2.29  0.00  0.00  0.00  0.01  0.01  0.01   0.6  0.00  0.10  0.00  0.00
 1975 185    53    40  25.0  -6.0 32.94  6.35  0.62  2.58 193.7  1.13 0.175  1.30  2203    14   295  1893   449  1444     0  0.00     0     0  1148     0 23.45 2.515  60.6     0     0  1105   251  0.76  0.81  63.8  19.4  1.81  0.00  0.00  0.00  0.05  0.05  0.05   0.4  0.00  0.33  0.00  0.00
 1975 186    54    41  23.5  -6.0 34.15  6.60  0.66  2.45 207.9  1.25 0.200  1.45  2393    14   318  2061   503  1558     0  0.00     0     0  1211     0 24.83 2.861  58.8     0     0  1187   249  0.79  0.81  62.4  17.2  1.82  0.00  0.00  0.00  0.09  0.09  0.09   0.4  0.00  0.23  0.00  0.00
 1975 187    55    42  25.5  -6.0 35.47  6.86  0.68  2.21 216.2  1.36 0.222  1.58  2592    14   341  2236   549  1687     0  0.00     0     0  1292     0 26.32 3.266  57.8     0     0  1187   247  0.81  0.81  63.8  14.7  1.37  0.00  0.00  0.00  0.14  0.14  0.14   0.3  0.05  0.37  0.00  0.00
 1975 188    56    43  19.0  -6.0 36.45  7.05  0.72  2.26 191.9  1.49 0.250  1.74  2768    14   362  2392   607  1784     0  0.00     0     0  1330     0 27.45 3.590  55.6     0     0  1187   246  0.83  0.82  62.0  18.8  2.44  0.00  0.00  0.00  0.16  0.16  0.16   0.4  0.00  0.00  0.00  0.00
 1975 189    57    44  17.5  -6.0 37.36  7.23  0.75  2.19 214.3  1.63 0.282  1.91  2965    14   385  2566   671  1895     0  0.00     0     0  1371     0 28.48 3.907  53.4     0     0  1187   243  0.84  0.82  59.8  16.0  1.72  0.00  0.00  0.00  0.19  0.19  0.19   0.2  0.00  0.00  0.00  0.00
 1975 190    58    45  19.0  -6.0 38.34  7.43  0.78  2.06 208.8  1.78 0.314  2.09  3157    14   408  2735   736  1999     0  0.00     0     0  1404     0 29.61 4.273  51.3     0     0  1187   242  0.86  0.82  57.6  14.4  1.44  0.00  0.00  0.00  0.24  0.24  0.24   0.2  0.00  0.00  0.00  0.00
 1975 191    59    46  17.0  -6.0 39.22  7.60  0.80  1.87 225.6  1.90 0.345  2.25  3365    14   433  2918   791  2127     0  0.00     0     0  1457     0 30.62 4.620  49.9     0     0  1187   240  0.88  0.82  54.7  11.9  0.97  0.06  0.03  0.25  0.28  0.28  0.28   0.2  0.00  0.00  0.00  0.00
 1975 192    60    47  18.0  -6.0 40.17  7.79  0.82  1.70 203.2  2.02 0.376  2.40  3551    14   455  3083   847  2236     0  0.00     0     0  1494     0 31.70 5.009  48.5     0     0  1187   239  0.90  0.82  52.4  11.2  0.92  0.16  0.08  0.29  0.32  0.32  0.32   0.1  0.00  0.00  0.00  0.00
 1975 193    61    48  20.5  -6.0 41.36  7.79  0.82  1.18 144.3  2.00 0.393  2.39  3685    14   470  3200   839  2354     0  0.00     0     0  1536     7 31.70 5.476  48.1     0     0  1187   238  0.92  0.82  51.4  10.2  0.67  0.66  0.33  0.48  0.35  0.35  0.35   0.3  0.00  0.03  0.00  0.00
 1975 194    62    49  22.0  -6.0 42.64  7.79  0.81  1.04 115.8  1.93 0.401  2.33  3791    14   483  3294   815  2455     0  0.00     0     0  1582    25 31.70 5.993  48.4     0     0  1187   237  0.93  0.81  50.9  10.8  0.57  0.87  0.43  0.56  0.32  0.32  0.32   0.4  0.00  0.13  0.00  0.00
 1975 195    63    50  23.5  -6.0 44.00  7.79  0.80  0.86 101.6  1.87 0.407  2.27  3884    14   494  3376   790  2543     0  0.00     0     0  1625    44 31.70 6.560  48.8     0     0  1187   236  0.95  0.81  51.1  10.0  0.45  1.00  0.55  0.66  0.29  0.29  0.29   0.9  0.00  0.23  0.00  0.00
 1975 196    64    51  23.5  -6.0 45.37  7.79  0.78  0.88  97.9  1.80 0.413  2.21  3975    14   504  3456   766  2629     0  0.00     0     0  1667    62 31.70 7.140  49.1     0     0  1187   235  0.97  0.81  51.4  10.6  0.43  1.00  0.57  0.67  0.24  0.24  0.24   1.2  0.00  0.23  0.00  0.00
 1975 197    65    52  19.5  -6.0 46.50  7.79  0.77  1.27 108.4  1.74 0.421  2.16  4075    14   514  3547   744  2725     0  0.00     0     0  1711    78 31.70 7.632  49.3     0     0  1187   234  0.99  0.84  53.9  15.9  0.59  0.83  0.41  0.55  0.20  0.20  0.20   1.5  0.00  0.00  0.00  0.00
 1975 198    66    53  19.0  -6.0 47.61  7.79  0.77  2.27 244.8  1.72 0.455  2.18  4307    14   533  3759   737  2938     0  0.00     0     0  1781    84 31.70 8.120  48.5     0     0  1187   234  1.00  0.87  51.8  12.1  1.06  0.00  0.00  0.19  0.16  0.16  0.16   1.0  0.00  0.00  0.00  0.00
 1975 199    67    54  18.0  -6.0 48.65  7.79  0.76  1.01  94.6  1.66 0.462  2.13  4394    14   543  3837   715  3023     0  0.00     0     0  1820   100 31.70 8.600  48.7     0     0  1187   233  1.02  0.83  52.1  14.5  0.43  1.00  0.57  0.67  0.12  0.12  0.12   0.6  0.00  0.00  0.00  0.00
 1975 200    68    55  18.0  -6.0 49.70  7.79  0.75  0.94  89.6  1.61 0.468  2.08  4477    14   551  3912   694  3069     0  0.00    34    34  1857   115 31.70 9.089  48.9     0     0  1187   232  1.03  0.83  52.5  14.4  0.38  1.00  0.62  0.71  0.08  0.08  0.08   2.0  0.00  0.00  0.00  0.00
 1975 201    69    56  19.0  -6.0 52.77  7.79  0.73  0.82  84.6  1.56 0.473  2.03  4556    14   559  3982   673  3059     0  0.00   120    66  1893   130 31.70 9.612  49.2     0     0  1187   231  1.05  0.83  53.2  13.0  0.32  1.00  0.68  0.76  0.04  0.04  0.04   2.0  0.00  0.00  0.00  0.00
 1975 202    70    57  19.0  -6.0 56.57  7.79  0.72  0.82  83.0  1.51 0.482  1.99  4633    14   567  4052   655  3053     0  0.00   201    98  1927   143 31.70 10.14  49.3     0     0  1187   231  1.06  0.84  53.9  13.5  0.31  1.00  0.69  0.76  0.02  0.02  0.02   2.0  0.00  0.00  0.00  0.00
 1975 203    71    58  19.0  -6.0 60.93  7.79  0.71  0.92  81.8  1.46 0.490  1.96  4710    14   573  4123   638  3050     0  0.00   280   130  1961   155 31.70 10.68  49.4     0     0  1187   230  1.08  0.86  54.7  15.7  0.34  1.00  0.66  0.74  0.00  0.00  0.00   2.0  0.00  0.00  0.00  0.00
 1975 204    72    59  16.5  -6.0 69.18  7.79  0.68  0.84  84.0  1.36 0.500  1.86  4789    14   578  4197   593  3058     0  0.00   360   163  2013   185 31.70 11.15  50.2     0     0  1187   229  1.09  0.88  55.2  14.8  0.31  1.00  0.69  0.76  0.00  0.00  0.00   2.0  0.00  0.00  0.00  0.00
 1975 205    73    60  22.5  -6.0 71.60  7.79  0.66  0.77  73.0  1.26 0.507  1.77  4858    14   583  4262   553  3058     0  0.00   439   193  2059   211 31.70 11.81  50.8     0     0  1187   228  1.11  0.89  56.4  14.2  0.28  1.00  0.72  0.78  0.00  0.00  0.00   2.0  0.00  0.17  0.00  0.00
 1975 206    74    61  23.5  -6.0 73.41  7.79  0.62  0.87  70.4  1.15 0.503  1.65  4926    14   586  4326   504  3054    29  0.01   495   222  2126   244 31.70 12.49  52.5 11786 .0002  1187   227  1.13  0.91  57.7  16.8  0.32  1.00  0.68  0.75  0.00  0.00  0.00   2.0  0.00  0.23  0.00  0.00
 1975 207    75    62  21.5  -6.0 75.07  7.79  0.58  0.96  71.5  1.03 0.499  1.53  4995    14   588  4393   454  3074    85  0.02   502   278  2170   277 31.70 13.12  53.8 11786 .0007  1187   227  1.15  0.94  58.8  19.3  0.35  1.00  0.65  0.73  0.00  0.00  0.00   2.0  0.00  0.10  0.00  0.00
 1975 208    76    63  25.5  -6.0 77.03  7.79  0.54  0.69  55.9  0.92 0.494  1.41  5049    14   589  4446   408  3045   185  0.04   501   378  2154   307 31.70 13.87  54.5 11786 .0016  1187   226  1.17  0.95  60.3  15.2  0.27  1.00  0.73  0.79  0.00  0.00  0.00   2.0  0.05  0.37  0.00  0.00
 1975 209    77    64  26.5  -6.0 79.03  7.79  0.49  0.74  53.5  0.80 0.490  1.29  5101    14   588  4498   355  2982   326  0.07   495   519  2099   341 31.70 14.63  54.8 11786 .0028  1187   225  1.19  0.98  61.9  19.2  0.32  1.00  0.68  0.75  0.00  0.00  0.00   0.3  0.15  0.43  0.00  0.00
 1975 210    78    65  25.0  -6.0 80.33  7.79  0.44  1.35  63.4  0.68 0.486  1.16  5163    14   589  4561   302  2899   499  0.11   485   692  2022   375 31.70 15.37  54.8 11786 .0042  1186   224  1.21  0.98  65.7  32.6  0.50  1.00  0.50  0.61  0.00  0.00  0.00   0.1  0.00  0.33  0.00  0.00
 1975 211    79    66  16.5  -6.0 80.78  7.79  0.40  2.23  80.9  0.60 0.483  1.08  5243    14   589  4640   268  2863   631  0.14   481   824  1991   397 31.70 15.85  55.1 11786 .0054  1184   223  1.23  0.98  66.4  50.6  2.67  0.00  0.00  0.00  0.17  0.17  0.17   0.3  0.00  0.00  0.00  0.00
 1975 212    80    67  12.0  -6.0 81.10  7.79  0.38  1.83  54.4  0.56 0.481  1.04  5297    14   589  4693   253  2850   703  0.15   480   895  1983   407 31.70 16.21  55.3 11786 .0060  1183   222  1.24  0.98  87.4  90.8  1.72  0.00  0.00  0.00  0.32  0.32  0.32   0.2  0.00  0.00  0.00  0.00
 1975 213    81    68  13.0  -6.0 81.45  7.79  0.37  1.55  44.8  0.54 0.479  1.01  5341    14   589  4737   241  2819   787  0.17   476   980  1950   414 31.70 16.59  55.1 11786 .0067  1182   222  1.25  0.98  86.2  85.6  8.64  0.00  0.00  0.00  0.43  0.43  0.43   2.0  0.00  0.00  0.00  0.00
 1975 214    82    69  15.5  -6.0 81.87  7.79  0.35  1.64  79.6  0.51 0.477  0.98  5419    14   590  4815   229  2786   906  0.19   471  1099  1916   422 31.70 17.05  55.0 11786 .0077  1181   221  1.26  0.98  82.6  45.8  4.81  0.00  0.00  0.00  0.39  0.39  0.39   1.3  0.00  0.00  0.00  0.00
 1975 215    83    70  15.0  -6.0 82.27  7.79  0.33  1.74  54.0  0.47 0.474  0.95  5472    14   590  4868   214  2739  1018  0.21   464  1211  1867   432 31.70 17.49  54.6 11786 .0086  1180   220  1.27  0.98  82.4  73.7  7.74  0.00  0.00  0.00  0.36  0.36  0.36   0.8  0.00  0.00  0.00  0.00
 1975 216    84    71  13.5  -6.0 82.64  7.79  0.31  1.73  61.4  0.44 0.472  0.91  5533    14   590  4928   200  2717  1109  0.23   462  1302  1845   441 31.70 17.89  54.6 11786 .0094  1179   220  1.28  0.98  81.8  66.3  7.01  0.00  0.00  0.00  0.36  0.36  0.36   0.6  0.00  0.00  0.00  0.00
 1975 217    85    72  23.5  -6.0 83.27  7.79  0.29  1.42  61.1  0.41 0.469  0.88  5593    14   591  4988   187  2612  1296  0.26   444  1489  1726   449 31.70 18.58  53.2 11786 .0110  1176   219  1.30  0.98  81.7  44.2  4.68  0.00  0.00  0.00  0.48  0.48  0.48   0.2  0.00  0.23  0.00  0.00
 1975 218    86    73  22.0  -6.0 83.86  7.79  0.26  1.18  50.5  0.36 0.465  0.82  5642    14   590  5037   164  2510  1472  0.29   428  1665  1615   463 31.70 19.23  52.1 11786 .0125  1174   218  1.32  0.98  81.7  46.4  3.25  0.00  0.00  0.00  0.56  0.56  0.56   0.1  0.00  0.13  0.00  0.00
 1975 219    87    74  14.5  -6.0 84.25  7.79  0.23  0.99  18.0  0.30 0.463  0.77  5660    14   590  5055   139  2442  1576  0.31   418  1769  1543   479 31.70 19.66  51.4 11786 .0134  1173   217  1.33  0.98  91.4  99.9  7.73  0.00  0.00  0.00  0.63  0.63  0.63   0.1  0.00  0.00  0.00  0.00
 1975 220    88    75  17.0  -6.0 84.71  7.79  0.20  0.81  23.2  0.26 0.461  0.73  5682    14   590  5078   122  2351  1712  0.34   404  1905  1441   489 31.70 20.16  50.1 11786 .0145  1170   217  1.35  0.98  87.7  80.4  7.91  0.00  0.00  0.00  0.70  0.70  0.70   0.1  0.00  0.00  0.00  0.00
 1975 221    89    76  15.0  -6.0 85.11  7.79  0.17  0.67  18.0  0.22 0.459  0.68  5700    14   590  5096   103  2276  1824  0.36   392  2017  1359   501 31.70 20.60  49.0 11786 .0155  1168   216  1.36  0.98  87.4  89.7  8.83  0.00  0.00  0.00  0.75  0.75  0.75   0.2  0.00  0.00  0.00  0.00
 1975 222    90    77  17.0  -6.0 85.57  7.79  0.15  0.56  10.3  0.18 0.457  0.64  5709    14   589  5106    86  2184  1947  0.38   378  2140  1256   512 31.70 21.11  47.5 11786 .0165  1165   215  1.37  0.98  87.7  99.9 12.26  0.00  0.00  0.00  0.79  0.79  0.79   0.1  0.00  0.00  0.00  0.00
 1975 223    91    78  17.0  -6.0 86.03  7.79  0.11  0.46   6.4  0.14 0.454  0.60  5715    14   589  5112    67  2174  1971  0.39   377  2164  1250   523 31.70 21.61  47.7 11786 .0167  1162   215  1.39  0.98  90.1  99.9 15.00  0.00  0.00  0.00  0.83  0.83  0.83   0.1  0.00  0.00  0.00  0.00
 1975 224    92    79  14.0  -6.0 86.41  7.79  0.08  0.38   6.4  0.10 0.452  0.56  5721    14   589  5118    48  2167  1991  0.39   378  2184  1247   534 31.70 22.02  48.1 11786 .0169  1159   214  1.40  0.98  90.2  99.9 14.48  0.00  0.00  0.00  0.86  0.86  0.86   0.1  0.00  0.00  0.00  0.00
 1975 225    93    80  15.5  -6.0 86.82  7.79  0.06  0.32   3.4  0.07 0.450  0.52  5724    14   588  5121    33  2159  2008  0.39   378  2201  1243   544 31.70 22.48  48.4 11786 .0170  1155   213  1.41  0.98  90.7  99.9 15.00  0.00  0.00  0.00  0.88  0.88  0.88   0.1  0.00  0.00  0.00  0.00
 1975 226    94    81  12.0  -6.0 87.15  7.79  0.03  0.26   2.0  0.03 0.449  0.48  5726    14   588  5123    16  2151  2025  0.40   378  2218  1238   553 31.70 22.83  48.6 11786 .0172  1153   213  1.42  0.98  91.1  99.9 15.00  0.00  0.00  0.00  0.90  0.90  0.90   0.1  0.00  0.00  0.00  0.00
 1975 227    95    82  17.0  -6.0 87.60  7.79  0.01  0.22   0.8  0.01 0.447  0.45  5726    14   587  5124     4  2143  2039  0.40   377  2232  1232   561 31.70 23.33  48.8 11786 .0173  1148   211  1.43  0.98  92.1  99.9 15.00  0.00  0.00  0.00  0.92  0.92  0.92   0.1  0.00  0.00  0.00  0.00
 1975 228    96    83  11.0  -6.0 87.90  7.79  0.00  0.18   0.1  0.00 0.445  0.45  5726    14   587  5124     0  2134  2051  0.40   376  2244  1222   563 31.70 23.65  48.7 11786 .0174  1145   -99  1.44  0.98  92.7  99.9 15.00  0.00  0.00  0.00  0.93  0.93  0.93   0.1  0.00  0.00  0.00  0.00
 1975 229    97    84  10.5  -6.0 88.18  7.79  0.00  0.00   0.0  0.00 0.444  0.44  5725    14   587  5124     0  2125  2062  0.40   375  2255  1211   563 31.70 23.96  48.5 11786 .0175  1142   -99  1.44  0.98  97.3  99.9 15.00  0.00  0.00  0.00  0.00  0.00  0.00   0.1  0.00  0.00  0.00  0.00
 1975 230    98    85  11.0  -6.0 88.48  7.79  0.00  0.00   0.0  0.00 0.442  0.44  5725    14   587  5124     0  2105  2080  0.41   372  2273  1193   567 31.70 24.28  48.2 11786 .0176  1139   -99  1.44  0.98  96.4  99.9 15.00  0.00  0.00  0.00  0.00  0.00  0.00   0.2  0.00  0.00  0.00  0.00
 1975 231    99    86  12.0  -6.0 88.80  7.79  0.00  0.00   0.0  0.00 0.439  0.44  5725    14   586  5124     0  2092  2090  0.41   371  2283  1183   571 31.70 24.63  48.0 11786 .0177  1136   -99  1.44  0.98 100.5  99.9 15.00  0.00  0.00  0.00  0.00  0.00  0.00   0.1  0.00  0.00  0.00  0.00
 1975 232   100    87  12.5  -6.0 89.14  7.79  0.00  0.00   0.0  0.00 0.437  0.44  5724    14   586  5124     0  2073  2107  0.41   369  2300  1167   575 31.70 25.00  47.8 11786 .0179  1132   -99  1.44  0.98 101.1  99.9 15.00  0.00  0.00  0.00  0.00  0.00  0.00   0.1  0.00  0.00  0.00  0.00
 1975 233   101    88  16.0  -6.0 89.57  7.79  0.00  0.00   0.0  0.00 0.433  0.43  5724    14   585  5124     0  2045  2132  0.42   366  2325  1141   581 31.70 25.47  47.3 11786 .0181  1127   -99  1.44  0.98 113.6  99.9 15.00  0.00  0.00  0.00  0.00  0.00  0.00   0.1  0.00  0.00  0.00  0.00
 1975 234   102    89  19.5  -6.0 90.18  7.79  0.00  0.00   0.0  0.00 0.430  0.43  5723    14   585  5124     0  2004  2171  0.42   361  2364  1102   587 31.70 26.04  46.6 11786 .0184  1121   -99  1.44  0.98 108.9  99.9 15.00  0.00  0.00  0.00  0.00  0.00  0.00   0.2  0.00  0.00  0.00  0.00

*DSSAT Cropping System Model Ver. 4.8.2.000 -release  APR 27, 2025 19:38:50

*RUN   3        : 41.0 KG N/HA DRY          CSCER048 SWSW7501    3
 MODEL          : CSCER048 - Wheat
 EXPERIMENT     : SWSW7501 WH N RESPONSE,SWIFT CURRENT  7FE(N)*2IR  (DSSAT3)
 DATA PATH      : C:\DSSAT48\Wheat\
 TREATMENT  3   : 41.0 KG N/HA DRY          CSCER048
  
@YEAR DOY   DAS   DAP TMEAN TKILL  GSTD  L#SD PARID PARUD  AWAD  LAID  SAID  CAID  TWAD SDWAD  RWAD  CWAD  LWAD  SWAD  HWAD  HIAD CHWAD  EWAD RSWAD SNWPD SNWLD SNWSD  RS%D  H#AD  HWUD  T#AD  SLAD  RDPD  PTFD  SWXD WAVRD WUPRD  WFTD  WFPD  WFGD  NFTD  NFPD  NFGD NUPRD  TFPD  TFGD VRNFD DYLFD
 1975 145    13     0   6.5  -6.0  0.00  0.00  0.00  0.00   0.0  0.00 0.000  0.00    71    71     0     0     0     0     0  0.00     0     0     0     0     0     0   0.0     0     0   250   -99  0.03  0.98   3.6  99.9  1.00  0.00  0.00  0.00  0.00  0.00  0.00   0.0  0.00  0.35  0.50  0.00
 1975 146    14     1   7.5  -6.0  3.25  0.00  0.00  0.00   0.0  0.00 0.000  0.00    71    71     0     0     0     0     0  0.00     0     0     0     0     0     0   0.0     0     0   250   -99  0.03  0.98   3.6  99.9  1.00  0.00  0.00  0.00  0.00  0.00  0.00   0.0  0.00  0.25  0.50  0.00
 1975 147    15     2   8.0  -6.0  5.73  0.00  0.00  0.00   0.0  0.00 0.000  0.00    71    71     0     0     0     0     0  0.00     0     0     0     0     0     0   0.0     0     0   250   -99  0.03  0.98   3.7  99.9  1.00  0.00  0.00  0.00  0.00  0.00  0.00   0.0  0.00  0.20  0.50  0.00
 1975 148    16     3   8.5  -6.0  7.29  0.00  0.00  0.00   0.0  0.00 0.000  0.00    71    70     1     0     0     0     0  0.00     0     0     0     0     0     0   0.0     0     0   250   -99  0.04  0.98   4.5  99.9  1.00  0.00  0.00  0.00  0.00  0.00  0.00   0.0  0.00  0.15  0.45  0.00
 1975 149    17     4   8.5  -6.0  8.85  0.00  0.00  0.00   0.0  0.00 0.000  0.00    71    70     1     0     0     0     0  0.00     0     0     0     0     0 .0003   0.0     0     0   250   -99  0.06  0.98   5.1  99.9  1.00  0.00  0.00  0.00  0.00  0.00  0.00   2.0  0.00  0.15  0.40  0.00
 1975 150    18     5  12.5  -6.0 10.00  0.00  0.00  0.00   0.0  0.00 0.000  0.00    71    69     2     0     0     0     0  0.00     0     0     0     0     0 .0011   0.0     0     0   250   -99  0.07  0.98   6.8  99.9  1.00  0.00  0.00  0.00  0.00  0.00  0.00   2.0  0.00  0.00  0.38  0.00
 1975 151    19     6  12.0  -6.0 10.25  0.25  0.02  0.00   0.0  0.02 0.002  0.02    71    59     3     9     6     3     0  0.00     0     0     0     0     0 .0024   0.0     0     0   250   300  0.09  0.75   9.4  99.9  1.00  0.00  0.00  0.00  0.00  0.00  0.00   0.1  0.00  0.00  0.36  0.00
 1975 152    20     7  12.0  -6.0 10.49  0.49  0.03  2.70   4.6  0.04 0.004  0.04    75    49     4    22    12    10     0  0.00     0     0     3     0     0 .0043  15.8     0     0   250   298  0.11  0.76  11.0  99.9  1.61  0.00  0.00  0.00  0.00  0.00  0.00   0.2  0.00  0.00  0.34  0.00
 1975 153    21     8  15.5  -6.0 10.81  0.81  0.04  1.93   8.7  0.05 0.006  0.06    83    42     6    35    17    18     0  0.00     0     0    10     0     0 .0075  28.0     0     0   250   297  0.13  0.73  12.7  75.7  0.72  0.57  0.28  0.45  0.00  0.00  0.00   0.3  0.00  0.00  0.34  0.00
 1975 154    22     9  13.5  -6.0 11.09  1.09  0.06  2.60   4.1  0.07 0.008  0.08    87    32     7    48    24    24     0  0.00     0     0    12     0     0 .0112  25.3     0     0   250   297  0.15  0.75  21.6  99.9  3.00  0.00  0.00  0.00  0.04  0.04  0.04   0.2  0.00  0.00  0.33  0.00
 1975 155    23    10  11.5  -6.0 11.33  1.33  0.07  1.87   9.7  0.08 0.010  0.09    95    27     8    60    28    32     0  0.00     0     0    18     0     0 .0150  29.3     0     0   250   295  0.17  0.73  21.9  99.9  1.09  0.00  0.00  0.16  0.31  0.31  0.31   0.8  0.00  0.00  0.30  0.00
 1975 156    24    11  15.0  -6.0 11.64  1.64  0.08  1.26  12.5  0.10 0.011  0.11   106    22    10    74    33    41     0  0.00     0     0    25     0     0 .0211  34.0     0     0   250   294  0.19  0.73  24.6  67.5  0.65  0.69  0.35  0.50  0.29  0.29  0.29   0.9  0.00  0.00  0.30  0.00
 1975 157    25    12  14.5  -6.0 11.93  1.93  0.09  1.49  16.6  0.11 0.013  0.12   121    19    13    89    37    52     0  0.00     0     0    33     0     0 .0284  37.3     0     0   250   293  0.22  0.74  26.5  65.5  0.74  0.53  0.26  0.43  0.25  0.25  0.25   1.0  0.00  0.00  0.30  0.00
 1975 158    26    13  11.5  -6.0 12.09  2.09  0.10  2.15  19.8  0.12 0.014  0.13   139    18    16   105    41    64     0  0.00     0     0    44     0     0 .0358  42.1     0     0   250   292  0.23  0.74  27.2  87.8  1.21  0.00  0.00  0.07  0.21  0.21  0.21   1.5  0.00  0.00  0.27  0.00
 1975 159    27    14  11.0  -6.0 12.20  2.20  0.10  2.23  23.9  0.13 0.015  0.14   160    17    19   124    43    80     0  0.00     0     0    59     0     0 .0445  47.5     0     0   250   291  0.25  0.75  27.9  78.5  1.31  0.00  0.00  0.00  0.18  0.18  0.18   1.6  0.00  0.00  0.24  0.00
 1975 160    28    15  11.0  -6.0 12.31  2.31  0.11  2.29  29.1  0.13 0.016  0.15   186    16    24   146    46   100     0  0.00     0     0    77     0     0 .0552  52.6     0     0   250   290  0.27  0.75  28.6  67.8  1.36  0.00  0.00  0.00  0.15  0.15  0.15   1.5  0.00  0.00  0.21  0.00
 1975 161    29    16  12.5  -6.0 12.44  2.44  0.11  2.35  32.2  0.14 0.017  0.16   215    16    29   171    50   122     0  0.00     0     0    97     0     0 .0701  56.6     0     0   250   289  0.28  0.75  29.5  62.4  1.48  0.00  0.00  0.00  0.13  0.13  0.13   1.3  0.00  0.00  0.19  0.00
 1975 162    30    17  16.5  -6.0 12.61  2.61  0.12  2.40  41.8  0.16 0.019  0.17   253    15    35   203    54   149     0  0.00     0     0   123     0     0 .0936  60.2     0     0   250   288  0.31  0.76  31.0  47.2  1.10  0.00  0.00  0.15  0.11  0.11  0.11   1.0  0.00  0.00  0.19  0.00
 1975 163    31    18  13.0  -6.0 12.74  2.74  0.13  2.45  24.1  0.17 0.020  0.19   275    15    38   222    58   164     0  0.00     0     0   136     0     0 0.116  61.1     0     0   250   287  0.33  0.76  32.0  94.5  1.80  0.00  0.00  0.00  0.09  0.09  0.09   1.3  0.00  0.00  0.18  0.00
 1975 164    32    19  12.5  -6.0 12.87  2.87  0.14  2.49  26.7  0.18 0.021  0.20   299    15    42   243    61   181     0  0.00     0     0   151     0     0 0.140  62.1     0     0   250   286  0.34  0.76  35.1  97.1  1.74  0.00  0.00  0.00  0.08  0.08  0.08   1.2  0.00  0.00  0.16  0.00
 1975 165    33    20  13.0  -6.0 13.01  3.01  0.15  2.53  28.0  0.19 0.023  0.21   324    14    46   264    65   199     0  0.00     0     0   167     0     0 0.167  63.0     0     0   250   285  0.36  0.77  39.4  99.9  3.24  0.00  0.00  0.00  0.06  0.06  0.06   1.7  0.00  0.00  0.15  0.00
 1975 166    34    21  13.5  -6.0 13.15  3.15  0.15  2.56  41.9  0.20 0.024  0.22   362    14    52   296    70   227     0  0.00     0     0   192     0     0 0.198  64.9     0     0   283   283  0.38  0.77  39.8  69.3  2.34  0.00  0.00  0.00  0.05  0.05  0.05   2.0  0.00  0.00  0.14  0.00
 1975 167    35    22  13.0  -6.0 13.28  3.28  0.16  2.60  47.1  0.21 0.026  0.24   405    14    58   333    74   259     0  0.00     0     0   222     0     0 0.232  66.6     0     0   315   282  0.40  0.77  40.3  64.1  2.41  0.00  0.00  0.00  0.04  0.04  0.04   2.0  0.00  0.00  0.12  0.00
 1975 168    36    23  12.5  -6.0 13.41  3.41  0.17  2.63  39.6  0.22 0.028  0.25   441    14    63   364    79   284     0  0.00     0     0   245     0     0 0.268  67.3     0     0   346   281  0.41  0.77  44.0  86.1  3.34  0.00  0.00  0.00  0.03  0.03  0.03   1.9  0.00  0.00  0.10  0.00
 1975 169    37    24  13.5  -6.0 13.55  3.55  0.18  2.65  53.9  0.24 0.030  0.27   490    14    71   405    85   320     0  0.00     0     0   278     0     0 0.311  68.5     0     0   380   280  0.43  0.78  45.7  63.3  2.58  0.00  0.00  0.00  0.02  0.02  0.02   2.0  0.00  0.00  0.09  0.00
 1975 170    38    25  11.5  -6.0 13.66  3.66  0.19  2.68  51.0  0.25 0.032  0.28   537    14    77   445    91   355     0  0.00     0     0   309     0     0 0.351  69.4     0     0   410   279  0.45  0.78  64.8  99.9  3.29  0.00  0.00  0.00  0.01  0.01  0.01   2.0  0.00  0.00  0.06  0.00
 1975 171    39    26  12.5  -6.0 13.79  3.79  0.20  2.70  47.4  0.27 0.034  0.30   580    14    83   482    97   385     0  0.00     0     0   336     0     0 0.399  69.7     0     0   442   277  0.46  0.78  64.7  99.9  3.69  0.00  0.00  0.00  0.00  0.00  0.00   2.0  0.00  0.00  0.05  0.00
 1975 172    40    27  15.0  -6.0 13.95  3.95  0.22  2.70  78.0  0.29 0.037  0.33   651    14    93   543   105   438     0  0.00     0     0   385     0     0 0.462  70.8     0     0   480   276  0.48  0.78  61.3  57.6  2.31  0.00  0.00  0.00  0.00  0.00  0.00   2.0  0.00  0.00  0.05  0.00
 1975 173    41    28  16.0  -6.0 21.09  4.11  0.24  2.70  68.1  0.32 0.041  0.36   713    14   102   597   117   480     0  0.00     0     0   420     0     0 0.537  70.5     0     0   522   275  0.50  0.79  61.9  65.7  2.92  0.00  0.00  0.00  0.00  0.00  0.00   2.0  0.00  0.00  0.05  0.00
 1975 174    42    29  17.5  -6.0 21.27  4.29  0.27  2.70  95.5  0.36 0.047  0.41   797    14   114   669   133   536     0  0.00     0     0   466     0 2.963 0.626  69.7     0     0   567   272  0.52  0.79  61.8  45.2  2.20  0.00  0.00  0.00  0.00  0.00  0.00   2.0  0.00  0.00  0.05  0.00
 1975 175    43    30  22.5  -6.0 21.50  4.52  0.29  2.70 103.8  0.40 0.053  0.46   889    14   127   747   150   597     0  0.00     0     0   518     0 6.799 0.755  69.3     0     0   624   270  0.55  0.79  62.8  38.6  2.07  0.00  0.00  0.00  0.00  0.00  0.00   2.0  0.00  0.17  0.05  0.00
 1975 176    44    31  20.0  -6.0 21.70  4.73  0.32  2.70  89.2  0.45 0.061  0.51   967    14   138   814   169   646     0  0.00     0     0   554     0 10.23 0.882  68.1     0     0   676   267  0.58  0.79  73.9  56.1  2.84  0.00  0.00  0.00  0.00  0.00  0.00   2.0  0.00  0.00  0.05  0.00
 1975 177    45    32  14.0  -6.0 21.85  4.87  0.34  2.70  63.3  0.48 0.066  0.55  1022    14   146   862   182   680     0  0.00     0     0   580     0 12.64 0.979  67.3     0     0   712   266  0.60  0.80  75.0  89.5  4.85  0.00  0.00  0.00  0.00  0.00  0.00   2.0  0.00  0.00  0.04  0.00
 1975 178    46    33  13.0  -6.0 21.98  5.01  0.35  2.70 138.2  0.52 0.070  0.59  1147    14   163   970   195   775     0  0.00     0     0   668     0 14.88 1.073  68.8     0     0   745   265  0.61  0.80  71.5  39.9  2.40  0.00  0.00  0.00  0.00  0.00  0.00   2.0  0.00  0.00  0.02  0.00
 1975 179    47    34  13.5  -6.0 22.12  5.15  0.38  2.70 154.9  0.56 0.078  0.64  1288    14   181  1092   214   878     0  0.00     0     0   759     0 16.70 1.183  69.5     0     0   780   263  0.63  0.80  70.0  34.8  2.37  0.00  0.00  0.00  0.00  0.00  0.00   2.0  0.00  0.00  0.01  0.00
 1975 180    48    35  15.5  -6.0 22.28  5.31  0.42  2.70 157.5  0.64 0.089  0.73  1432    14   200  1217   245   973     0  0.00     0     0   834     0 17.58 1.324  68.5     0     0   820   261  0.65  0.80  68.8  32.3  2.50  0.00  0.00  0.00  0.00  0.00  0.00   2.0  0.00  0.00  0.00  0.00
 1975 181    49    36  16.0  -6.0 22.44  5.47  0.46  2.70 171.4  0.72 0.102  0.82  1588    14   220  1354   277  1077     0  0.00     0     0   917     0 18.51 1.484  67.8     0     0   861   259  0.66  0.80  67.5  28.7  2.50  0.00  0.00  0.00  0.00  0.00  0.00   1.6  0.00  0.00  0.00  0.00
 1975 182    50    37  19.0  -6.0 22.64  5.67  0.50  2.70 171.4  0.81 0.117  0.93  1745    14   240  1491   315  1176     0  0.00     0     0   990     0 19.62 1.693  66.4     0     0   910   257  0.69  0.81  66.5  27.0  2.06  0.00  0.00  0.00  0.00  0.00  0.00   1.2  0.00  0.00  0.00  0.00
 1975 183    51    38  20.5  -6.0 30.53  5.88  0.54  2.70 183.6  0.91 0.134  1.04  1913    14   260  1639   355  1284     0  0.00     0     0  1067     0 20.82 1.938  65.1     0     0   963   255  0.71  0.81  65.5  24.0  1.88  0.00  0.00  0.00  0.00  0.00  0.00   1.0  0.00  0.03  0.00  0.00
 1975 184    52    39  21.5  -6.0 31.65  6.10  0.58  2.70 161.3  1.02 0.153  1.17  2061    14   278  1769   400  1369     0  0.00     0     0  1116     0 22.08 2.218  63.1     0     0  1018   254  0.73  0.81  65.0  26.7  2.27  0.00  0.00  0.00  0.00  0.00  0.00   0.9  0.00  0.10  0.00  0.00
 1975 185    53    40  25.0  -6.0 32.94  6.35  0.62  2.70 203.9  1.14 0.177  1.32  2248    14   300  1934   454  1480     0  0.00     0     0  1180     0 23.55 2.565  61.0     0     0  1114   251  0.76  0.82  65.7  19.9  1.79  0.00  0.00  0.00  0.00  0.00  0.00   0.5  0.00  0.33  0.00  0.00
 1975 186    54    41  23.5  -6.0 34.15  6.60  0.66  2.62 223.5  1.28 0.203  1.48  2454    14   323  2116   512  1605     0  0.00     0     0  1250     0 24.94 2.917  59.1     0     0  1202   249  0.79  0.82  64.3  17.6  1.48  0.00  0.00  0.00  0.03  0.03  0.03   0.4  0.00  0.23  0.00  0.00
 1975 187    55    42  25.5  -6.0 35.47  6.86  0.69  2.37 233.9  1.37 0.224  1.60  2669    14   348  2307   555  1752     0  0.00     0     0  1353     0 26.46 3.330  58.6     0     0  1202   247  0.81  0.82  65.7  15.0  1.06  0.00  0.00  0.19  0.08  0.08  0.08   0.4  0.05  0.37  0.00  0.00
 1975 188    56    43  19.0  -6.0 36.45  7.05  0.72  2.45 209.6  1.52 0.255  1.77  2863    14   370  2478   618  1860     0  0.00     0     0  1396     0 27.59 3.661  56.3     0     0  1202   245  0.83  0.82  63.9  19.2  2.28  0.00  0.00  0.00  0.09  0.09  0.09   0.5  0.00  0.00  0.00  0.00
 1975 189    57    44  17.5  -6.0 37.36  7.23  0.76  2.40 236.2  1.67 0.290  1.96  3081    14   394  2672   688  1985     0  0.00     0     0  1443     0 28.64 3.985  54.0     0     0  1202   243  0.84  0.83  61.8  16.4  1.43  0.00  0.00  0.00  0.11  0.11  0.11   0.3  0.00  0.00  0.00  0.00
 1975 190    58    45  19.0  -6.0 38.34  7.43  0.79  2.24 229.6  1.82 0.324  2.14  3293    14   418  2860   754  2106     0  0.00     0     0  1487     0 29.78 4.359  52.0     0     0  1202   242  0.86  0.82  59.5  14.7  1.00  0.00  0.00  0.23  0.17  0.17  0.17   0.2  0.00  0.00  0.00  0.00
 1975 191    59    46  17.0  -6.0 39.22  7.60  0.80  1.51 183.3  1.91 0.349  2.26  3461    14   438  3008   796  2212     0  0.00     0     0  1534     0 30.81 4.715  51.0     0     0  1202   240  0.88  0.82  57.9  12.5  0.71  0.57  0.29  0.45  0.22  0.22  0.22   0.2  0.00  0.00  0.00  0.00
 1975 192    60    47  18.0  -6.0 40.17  7.79  0.82  1.42 170.3  2.01 0.373  2.38  3617    14   457  3146   840  2306     0  0.00     0     0  1569     0 31.89 5.110  49.9     0     0  1202   239  0.90  0.82  56.7  12.1  0.69  0.62  0.31  0.47  0.24  0.24  0.24   0.2  0.00  0.00  0.00  0.00
 1975 193    61    48  20.5  -6.0 41.36  7.79  0.81  1.31 159.8  1.98 0.393  2.38  3765    14   474  3277   833  2437     0  0.00     0     0  1615     7 31.89 5.578  49.4     0     0  1202   238  0.92  0.82  55.9  11.2  0.65  0.70  0.35  0.50  0.26  0.26  0.26   0.4  0.00  0.03  0.00  0.00
 1975 194    62    49  22.0  -6.0 42.64  7.79  0.81  1.41 156.3  1.96 0.412  2.37  3910    14   490  3405   825  2567     0  0.00     0     0  1661    14 31.89 6.099  49.0     0     0  1202   237  0.93  0.82  55.0  11.7  0.67  0.66  0.33  0.48  0.23  0.23  0.23   0.4  0.00  0.13  0.00  0.00
 1975 195    63    50  23.5  -6.0 44.00  7.79  0.80  1.08 129.1  1.89 0.422  2.31  4029    14   504  3510   800  2678     0  0.00     0     0  1711    32 31.89 6.675  49.2     0     0  1202   236  0.95  0.81  54.9  10.7  0.50  1.00  0.50  0.62  0.19  0.19  0.19   0.5  0.00  0.23  0.00  0.00
 1975 196    64    51  23.5  -6.0 45.37  7.79  0.79  0.96 107.2  1.83 0.429  2.26  4127    14   515  3597   776  2771     0  0.00     0     0  1755    50 31.89 7.267  49.5     0     0  1202   235  0.97  0.81  55.3  11.4  0.42  1.00  0.58  0.68  0.15  0.15  0.15   2.0  0.00  0.23  0.00  0.00
 1975 197    65    52  19.5  -6.0 46.50  7.79  0.78  1.27 109.3  1.77 0.437  2.20  4228    14   526  3688   753  2868     0  0.00     0     0  1799    67 31.89 7.770  49.7     0     0  1202   235  0.99  0.83  57.9  17.0  0.53  0.95  0.47  0.59  0.11  0.11  0.11   2.0  0.00  0.00  0.00  0.00
 1975 198    66    53  19.0  -6.0 47.61  7.79  0.77  2.52 272.9  1.74 0.476  2.22  4487    14   546  3927   747  3107     0  0.00     0     0  1877    73 31.89 8.270  48.7     0     0  1202   234  1.00  0.88  56.0  13.0  1.10  0.00  0.00  0.16  0.07  0.07  0.07   1.5  0.00  0.00  0.00  0.00
 1975 199    67    54  18.0  -6.0 48.65  7.79  0.76  1.20 113.0  1.69 0.485  2.17  4592    14   557  4021   725  3207     0  0.00     0     0  1920    89 31.89 8.761  48.8     0     0  1202   233  1.02  0.83  56.2  15.5  0.46  1.00  0.54  0.65  0.03  0.03  0.03   0.8  0.00  0.00  0.00  0.00
 1975 200    68    55  18.0  -6.0 49.70  7.79  0.75  1.19 114.2  1.63 0.495  2.13  4698    14   567  4117   704  3266     0  0.00    44    44  1964   104 31.89 9.262  49.0     0     0  1202   232  1.03  0.84  56.4  15.3  0.44  1.00  0.56  0.66  0.00  0.00  0.00   2.0  0.00  0.00  0.00  0.00
 1975 201    69    56  19.0  -6.0 52.77  7.79  0.74  0.94  97.6  1.58 0.502  2.08  4789    14   577  4198   682  3248     0  0.00   148    81  2004   119 31.89 9.801  49.1     0     0  1202   231  1.05  0.83  57.0  13.8  0.35  1.00  0.65  0.73  0.00  0.00  0.00   2.0  0.00  0.00  0.00  0.00
 1975 202    70    57  19.0  -6.0 56.57  7.79  0.73  0.85  86.8  1.53 0.511  2.04  4870    14   584  4271   664  3238     0  0.00   236   114  2039   132 31.89 10.35  49.3     0     0  1202   231  1.06  0.84  57.7  14.3  0.31  1.00  0.69  0.76  0.00  0.00  0.00   2.0  0.00  0.00  0.00  0.00
 1975 203    71    58  19.0  -6.0 60.93  7.79  0.72  0.90  80.2  1.49 0.519  2.01  4945    14   590  4341   647  3234     0  0.00   315   145  2072   145 31.89 10.90  49.4     0     0  1202   230  1.08  0.86  58.5  16.7  0.33  1.00  0.67  0.75  0.00  0.00  0.00   2.0  0.00  0.00  0.00  0.00
 1975 204    72    59  16.5  -6.0 69.18  7.79  0.69  0.78  79.0  1.38 0.528  1.91  5020    14   596  4410   602  3241     0  0.00   392   177  2123   175 31.89 11.39  50.1     0     0  1202   229  1.09  0.88  59.1  15.8  0.29  1.00  0.71  0.78  0.00  0.00  0.00   2.0  0.00  0.00  0.00  0.00
 1975 205    73    60  22.5  -6.0 71.60  7.79  0.66  0.70  66.7  1.28 0.534  1.82  5083    14   600  4469   561  3241     0  0.00   464   204  2168   202 31.89 12.06  50.8     0     0  1202   229  1.11  0.89  60.4  15.1  0.26  1.00  0.74  0.80  0.00  0.00  0.00   2.0  0.00  0.17  0.00  0.00
 1975 206    74    61  23.5  -6.0 73.41  7.79  0.63  0.77  63.0  1.16 0.530  1.69  5143    14   602  4526   511  3235    31  0.01   514   234  2227   235 31.89 12.77  52.3 12418 .0002  1202   228  1.13  0.91  61.8  17.9  0.29  1.00  0.71  0.78  0.00  0.00  0.00   2.0  0.00  0.23  0.00  0.00
 1975 207    75    62  21.5  -6.0 75.07  7.79  0.59  0.83  62.7  1.04 0.526  1.57  5203    14   604  4585   460  3246    90  0.02   520   294  2260   268 31.89 13.41  53.5 12418 .0007  1202   227  1.15  0.93  63.1  20.5  0.31  1.00  0.69  0.76  0.00  0.00  0.00   2.0  0.00  0.10  0.00  0.00
 1975 208    76    63  25.5  -6.0 77.03  7.79  0.55  0.59  48.3  0.93 0.521  1.46  5250    14   605  4631   414  3206   195  0.04   518   399  2231   299 31.89 14.18  53.9 12418 .0016  1202   226  1.17  0.95  64.8  16.2  0.23  1.00  0.77  0.82  0.00  0.00  0.00   2.0  0.05  0.37  0.00  0.00
 1975 209    77    64  26.5  -6.0 79.03  7.79  0.50  0.62  45.6  0.81 0.517  1.33  5294    14   605  4675   360  3130   343  0.07   509   547  2162   333 31.89 14.97  54.1 12418 .0028  1202   225  1.19  0.97  66.6  20.5  0.27  1.00  0.73  0.79  0.00  0.00  0.00   2.0  0.15  0.43  0.00  0.00
 1975 210    78    65  25.0  -6.0 80.33  7.79  0.44  1.09  51.7  0.69 0.512  1.20  5344    14   605  4726   307  3029   526  0.11   496   730  2064   368 31.89 15.73  53.9 12418 .0042  1202   224  1.21  0.98  70.7  34.8  0.40  1.00  0.60  0.69  0.00  0.00  0.00   0.1  0.00  0.33  0.00  0.00
 1975 211    79    66  16.5  -6.0 80.78  7.79  0.40  2.35  86.2  0.61 0.510  1.12  5429    14   605  4810   272  2991   665  0.14   492   868  2032   390 31.89 16.22  54.1 12418 .0054  1202   223  1.23  0.98  71.4  53.8  3.02  0.00  0.00  0.00  0.13  0.13  0.13   0.4  0.00  0.00  0.00  0.00
 1975 212    80    67  12.0  -6.0 81.10  7.79  0.38  2.05  61.6  0.57 0.508  1.08  5490    14   606  4870   256  2982   740  0.15   492   944  2027   400 31.89 16.59  54.3 12418 .0060  1201   222  1.24  0.98  92.4  94.9  1.52  0.00  0.00  0.00  0.24  0.24  0.24   0.3  0.00  0.00  0.00  0.00
 1975 213    81    68  13.0  -6.0 81.45  7.79  0.37  1.83  53.4  0.54 0.506  1.05  5543    14   606  4923   245  2953   829  0.17   488  1033  1998   407 31.89 16.98  54.2 12418 .0067  1201   222  1.25  0.98  91.2  89.5 10.19  0.00  0.00  0.00  0.32  0.32  0.32   2.0  0.00  0.00  0.00  0.00
 1975 214    82    69  15.5  -6.0 81.87  7.79  0.35  1.91  93.9  0.51 0.503  1.02  5635    14   607  5015   232  2927   955  0.19   485  1159  1972   415 31.89 17.45  54.1 12418 .0077  1200   221  1.26  0.98  87.6  48.0  5.67  0.00  0.00  0.00  0.29  0.29  0.29   2.0  0.00  0.00  0.00  0.00
 1975 215    83    70  15.0  -6.0 82.27  7.79  0.34  2.01  62.9  0.48 0.501  0.98  5697    14   607  5076   217  2883  1073  0.21   478  1277  1925   425 31.89 17.91  53.8 12418 .0086  1200   221  1.27  0.98  87.5  77.3  9.12  0.00  0.00  0.00  0.26  0.26  0.26   2.0  0.00  0.00  0.00  0.00
 1975 216    84    71  13.5  -6.0 82.64  7.79  0.32  2.10  75.5  0.45 0.499  0.95  5772    14   607  5150   203  2868  1169  0.23   477  1372  1913   434 31.89 18.32  53.9 12418 .0094  1199   220  1.28  0.98  86.8  69.5  8.27  0.00  0.00  0.00  0.22  0.22  0.22   2.0  0.00  0.00  0.00  0.00
 1975 217    85    72  23.5  -6.0 83.27  7.79  0.30  2.18  95.3  0.42 0.495  0.91  5866    14   608  5244   190  2782  1366  0.26   463  1569  1818   443 31.89 19.03  52.9 12418 .0110  1199   220  1.30  0.98  86.7  46.3  5.52  0.00  0.00  0.00  0.19  0.19  0.19   0.6  0.00  0.23  0.00  0.00
 1975 218    86    73  22.0  -6.0 83.86  7.79  0.27  1.82  78.7  0.36 0.492  0.86  5943    14   608  5321   166  2696  1550  0.29   451  1754  1725   457 31.89 19.70  52.1 12418 .0125  1198   219  1.32  0.98  86.7  48.6  3.65  0.00  0.00  0.00  0.33  0.33  0.33   0.4  0.00  0.13  0.00  0.00
 1975 219    87    74  14.5  -6.0 84.25  7.79  0.24  1.52  28.1  0.32 0.490  0.81  5970    14   608  5348   145  2631  1661  0.31   441  1864  1655   471 31.89 20.14  51.5 12418 .0134  1197   218  1.33  0.98  96.5  99.9  8.85  0.00  0.00  0.00  0.44  0.44  0.44   0.4  0.00  0.00  0.00  0.00
 1975 220    88    75  17.0  -6.0 84.71  7.79  0.21  1.25  37.0  0.28 0.487  0.77  6007    14   608  5385   130  2544  1803  0.33   427  2007  1558   480 31.89 20.66  50.2 12418 .0145  1196   217  1.35  0.98  92.8  82.0  9.14  0.00  0.00  0.00  0.54  0.54  0.54   0.7  0.00  0.00  0.00  0.00
 1975 221    89    76  15.0  -6.0 85.11  7.79  0.18  1.04  29.4  0.24 0.485  0.72  6035    14   608  5413   110  2473  1921  0.35   417  2125  1481   492 31.89 21.11  49.4 12418 .0155  1195   217  1.36  0.98  92.4  89.4  9.96  0.00  0.00  0.00  0.62  0.62  0.62   0.4  0.00  0.00  0.00  0.00
 1975 222    90    77  17.0  -6.0 85.57  7.79  0.16  0.86  16.9  0.20 0.483  0.68  6052    14   607  5430    93  2370  2064  0.38   401  2268  1365   503 31.89 21.63  47.7 12418 .0166  1193   216  1.37  0.98  92.7  99.9 13.71  0.00  0.00  0.00  0.68  0.68  0.68   0.2  0.00  0.00  0.00  0.00
 1975 223    91    78  17.0  -6.0 86.03  7.79  0.13  0.71  10.6  0.16 0.481  0.64  6062    14   607  5440    74  2262  2207  0.41   384  2411  1245   514 31.89 22.14  45.8 12418 .0178  1191   216  1.39  0.98  95.1  99.9 15.00  0.00  0.00  0.00  0.74  0.74  0.74   0.1  0.00  0.00  0.00  0.00
 1975 224    92    79  14.0  -6.0 86.41  7.79  0.10  0.59  10.9  0.12 0.479  0.60  6072    14   607  5451    55  2188  2310  0.42   372  2513  1164   526 31.89 22.57  44.5 12418 .0186  1189   215  1.40  0.98  95.2  99.9 15.00  0.00  0.00  0.00  0.78  0.78  0.78   0.2  0.00  0.00  0.00  0.00
 1975 225    93    80  15.5  -6.0 86.82  7.79  0.07  0.49   5.9  0.08 0.477  0.56  6077    14   606  5457    39  2090  2436  0.45   357  2639  1053   535 31.89 23.04  42.4 12418 .0196  1187   214  1.41  0.98  95.7  99.9 15.00  0.00  0.00  0.00  0.82  0.82  0.82   0.1  0.00  0.00  0.00  0.00
 1975 226    94    81  12.0  -6.0 87.15  7.79  0.04  0.41   3.7  0.05 0.475  0.52  6081    14   606  5460    23  2033  2511  0.46   348  2715   991   545 31.89 23.40  41.2 12418 .0202  1185   214  1.42  0.98  96.0  99.9 15.00  0.00  0.00  0.00  0.85  0.85  0.85   0.2  0.00  0.00  0.00  0.00
 1975 227    95    82  17.0  -6.0 87.60  7.79  0.02  0.34   1.6  0.02 0.473  0.49  6082    14   606  5462    10  1916  2654  0.49   329  2858   858   553 31.89 23.92  38.0 12418 .0214  1182   213  1.43  0.98  97.1  99.9 15.00  0.00  0.00  0.00  0.88  0.88  0.88   0.1  0.00  0.00  0.00  0.00
 1975 228    96    83  11.0  -6.0 87.90  7.79  0.00  0.28   0.6  0.00 0.472  0.47  6082    14   605  5463     0  1865  2717  0.50   321  2921   801   559 31.89 24.25  36.6 12418 .0219  1179   -99  1.44  0.98  97.6  99.9 15.00  0.00  0.00  0.00  0.90  0.90  0.90   0.1  0.00  0.00  0.00  0.00
 1975 229    97    84  10.5  -6.0 88.18  7.79  0.00  0.00   0.0  0.00 0.470  0.47  6082    14   605  5463     0  1816  2775  0.51   313  2979   743   559 31.89 24.57  34.9 12418 .0223  1177   -99  1.44  0.98 102.2  99.9 15.00  0.00  0.00  0.00  0.00  0.00  0.00   0.1  0.00  0.00  0.00  0.00
 1975 230    98    85  11.0  -6.0 88.48  7.79  0.00  0.00   0.0  0.00 0.468  0.47  6081    14   605  5463     0  1757  2839  0.52   304  3042   679   563 31.89 24.90  33.0 12418 .0229  1175   -99  1.44  0.98 101.3  99.9 15.00  0.00  0.00  0.00  0.00  0.00  0.00   0.3  0.00  0.00  0.00  0.00
 1975 231    99    86  12.0  -6.0 88.80  7.79  0.00  0.00   0.0  0.00 0.465  0.47  6081    14   604  5463     0  1731  2864  0.52   301  3068   654   567 31.89 25.26  32.2 12418 .0231  1172   -99  1.44  0.98 105.4  99.9 15.00  0.00  0.00  0.00  0.00  0.00  0.00   0.1  0.00  0.00  0.00  0.00
[...]
 1975 178    46    33  13.0  -6.0 22.00  5.01  0.36  2.70 141.7  0.53 0.072  0.60  1235    14   174  1047   201   846     0  0.00     0     0   736     0 14.96 1.176  70.3     0     0   750   265  0.61  0.80  78.9  42.9  2.50  0.00  0.00  0.00  0.00  0.00  0.00   2.0  0.00  0.00  0.02  0.00
 1975 179    47    34  13.5  -6.0 22.14  5.15  0.40  2.70 158.6  0.59 0.082  0.67  1378    14   193  1171   226   946     0  0.00     0     0   820     0 16.93 1.294  70.0     0     0   785   263  0.63  0.80  75.2  36.4  2.48  0.00  0.00  0.00  0.00  0.00  0.00   2.0  0.00  0.00  0.01  0.00
 1975 180    48    35  15.5  -6.0 22.30  5.31  0.43  2.70 164.2  0.67 0.094  0.76  1529    14   212  1302   257  1045     0  0.00     0     0   900     0 17.86 1.443  69.1     0     0   825   261  0.65  0.80  74.1  33.3  2.55  0.00  0.00  0.00  0.00  0.00  0.00   2.0  0.00  0.00  0.00  0.00
 1975 181    49    36  16.0  -6.0 22.46  5.47  0.47  2.70 177.6  0.75 0.106  0.85  1691    14   233  1444   289  1155     0  0.00     0     0   989     0 18.84 1.613  68.5     0     0   866   259  0.66  0.80  73.0  29.8  2.55  0.00  0.00  0.00  0.00  0.00  0.00   2.0  0.00  0.00  0.00  0.00
 1975 182    50    37  19.0  -6.0 22.66  5.67  0.51  2.70 176.6  0.84 0.121  0.96  1853    14   253  1585   327  1258     0  0.00     0     0  1065     0 20.01 1.835  67.2     0     0   915   257  0.69  0.81  72.2  28.3  2.69  0.00  0.00  0.00  0.00  0.00  0.00   2.0  0.00  0.00  0.00  0.00
 1975 183    51    38  20.5  -6.0 30.53  5.88  0.55  2.70 188.3  0.94 0.138  1.08  2025    14   275  1736   367  1369     0  0.00     0     0  1146     0 21.28 2.095  66.0     0     0   968   255  0.71  0.81  71.5  25.4  2.35  0.00  0.00  0.00  0.00  0.00  0.00   2.0  0.00  0.03  0.00  0.00
 1975 184    52    39  21.5  -6.0 31.65  6.10  0.59  2.70 164.8  1.05 0.157  1.20  2176    14   293  1869   412  1457     0  0.00     0     0  1198     0 22.61 2.390  64.1     0     0  1023   254  0.73  0.81  83.8  33.6  2.77  0.00  0.00  0.00  0.00  0.00  0.00   2.0  0.00  0.10  0.00  0.00
 1975 185    53    40  25.0  -6.0 32.94  6.35  0.63  2.70 207.6  1.17 0.181  1.35  2367    14   315  2038   466  1572     0  0.00     0     0  1265     0 24.16 2.755  62.1     0     0  1119   251  0.76  0.82  82.5  24.0  2.50  0.00  0.00  0.00  0.00  0.00  0.00   2.0  0.00  0.33  0.00  0.00
 1975 186    54    41  23.5  -6.0 34.15  6.60  0.67  2.70 234.3  1.31 0.208  1.52  2583    14   339  2229   525  1704     0  0.00     0     0  1341     0 25.63 3.125  60.2     0     0  1210   249  0.79  0.82  79.0  21.0  2.46  0.00  0.00  0.00  0.00  0.00  0.00   2.0  0.00  0.23  0.00  0.00
 1975 187    55    42  25.5  -6.0 35.47  6.86  0.70  2.57 256.8  1.43 0.234  1.67  2820    14   365  2440   579  1862     0  0.00     0     0  1444     0 27.23 3.558  59.2     0     0  1210   247  0.81  0.83  78.2  17.4  2.21  0.00  0.00  0.00  0.00  0.00  0.00   2.0  0.05  0.37  0.00  0.00
 1975 188    56    43  19.0  -6.0 36.45  7.05  0.74  2.70 235.8  1.59 0.268  1.86  3038    14   389  2635   648  1987     0  0.00     0     0  1496     0 28.42 3.905  56.8     0     0  1210   245  0.83  0.83  75.8  22.2  3.14  0.00  0.00  0.00  0.00  0.00  0.00   2.0  0.00  0.00  0.00  0.00
 1975 189    57    44  17.5  -6.0 37.36  7.23  0.78  2.70 272.4  1.77 0.308  2.07  3291    14   415  2862   726  2136     0  0.00     0     0  1554     0 29.53 4.245  54.3     0     0  1210   243  0.84  0.84  85.3  22.0  2.36  0.00  0.00  0.00  0.00  0.00  0.00   1.5  0.00  0.00  0.00  0.00
 1975 190    58    45  19.0  -6.0 38.34  7.43  0.81  2.70 283.5  1.96 0.352  2.31  3555    14   442  3099   811  2288     0  0.00     0     0  1607     0 30.73 4.639  51.9     0     0  1210   241  0.86  0.84  94.7  22.4  2.19  0.00  0.00  0.00  0.00  0.00  0.00   2.0  0.00  0.00  0.00  0.00
 1975 191    59    46  17.0  -6.0 39.22  7.60  0.84  2.70 338.4  2.13 0.397  2.53  3871    14   473  3384   889  2495     0  0.00     0     0  1704     0 31.82 5.015  50.4     0     0  1210   240  0.88  0.84  90.3  18.6  2.68  0.00  0.00  0.00  0.00  0.00  0.00   2.0  0.00  0.00  0.00  0.00
 1975 192    60    47  18.0  -6.0 40.17  7.79  0.86  2.70 337.9  2.31 0.446  2.76  4187    14   504  3669   970  2698     0  0.00     0     0  1786     0 32.97 5.440  48.7     0     0  1210   238  0.90  0.85  99.0  20.1  2.82  0.00  0.00  0.00  0.00  0.00  0.00   2.0  0.00  0.00  0.00  0.00
 1975 193    61    48  20.5  -6.0 41.36  7.79  0.86  2.70 346.1  2.28 0.494  2.78  4512    14   534  3963   962  2994     0  0.00     0     0  1883     8 32.97 5.957  47.6     0     0  1210   237  0.92  0.85 107.6  20.1  2.76  0.00  0.00  0.00  0.00  0.00  0.00   2.0  0.00  0.03  0.00  0.00
 1975 194    62    49  22.0  -6.0 42.64  7.79  0.85  2.70 315.9  2.25 0.538  2.79  4809    14   561  4234   953  3265     0  0.00     0     0  1972    16 32.97 6.544  46.8     0     0  1210   237  0.93  0.86 103.3  20.5  3.12  0.00  0.00  0.00  0.00  0.00  0.00   2.0  0.00  0.13  0.00  0.00
 1975 195    63    50  23.5  -6.0 44.00  7.79  0.85  2.70 338.7  2.22 0.585  2.81  5128    14   588  4526   943  3558     0  0.00     0     0  2068    25 32.97 7.203  46.0     0     0  1210   236  0.95  0.86  98.6  18.0  3.02  0.00  0.00  0.00  0.00  0.00  0.00   2.0  0.00  0.23  0.00  0.00
 1975 196    64    51  23.5  -6.0 45.37  7.79  0.84  2.70 321.1  2.19 0.629  2.82  5432    14   612  4806   934  3838     0  0.00     0     0  2161    34 32.97 7.894  45.3     0     0  1210   235  0.97  0.87 119.0  22.7  3.30  0.00  0.00  0.00  0.00  0.00  0.00   2.0  0.00  0.23  0.00  0.00
 1975 197    65    52  19.5  -6.0 46.50  7.79  0.84  2.70 248.8  2.16 0.664  2.83  5668    14   630  5024   926  4057     0  0.00     0     0  2234    41 32.97 8.491  44.8     0     0  1210   234  0.99  0.88 120.0  32.1  4.81  0.00  0.00  0.00  0.00  0.00  0.00   2.0  0.00  0.00  0.00  0.00
 1975 198    66    53  19.0  -6.0 47.61  7.79  0.84  2.70 317.1  2.14 0.710  2.85  5969    14   652  5304   918  4337     0  0.00     0     0  2325    48 32.97 9.089  44.2     0     0  1210   233  1.00  0.88 140.6  29.7  3.91  0.00  0.00  0.00  0.00  0.00  0.00   2.0  0.00  0.00  0.00  0.00
 1975 199    67    54  18.0  -6.0 48.65  7.79  0.83  2.70 275.0  2.11 0.750  2.86  6232    14   670  5548   911  4582     0  0.00     0     0  2405    55 32.97 9.676  43.8     0     0  1210   232  1.02  0.89 136.3  34.0  4.77  0.00  0.00  0.00  0.00  0.00  0.00   2.0  0.00  0.00  0.00  0.00
 1975 200    68    55  18.0  -6.0 49.70  7.79  0.83  2.70 284.1  2.09 0.791  2.88  6503    14   687  5802   904  4721     0  0.00   115   115  2488    62 32.97 10.28  43.3     0     0  1210   231  1.03  0.89 130.9  31.8  4.79  0.00  0.00  0.00  0.00  0.00  0.00   2.0  0.00  0.00  0.00  0.00
 1975 201    69    56  19.0  -6.0 52.77  7.79  0.83  2.70 311.0  2.06 0.836  2.90  6801    14   705  6081   895  4753     0  0.00   364   243  2579    69 32.97 10.93  42.9     0     0  1210   231  1.05  0.90 126.8  27.3  4.35  0.00  0.00  0.00  0.00  0.00  0.00   2.0  0.00  0.00  0.00  0.00
 1975 202    70    57  19.0  -6.0 56.57  7.79  0.82  2.70 309.6  2.05 0.881  2.93  7099    14   721  6363   890  4785     0  0.00   614   371  2669    74 32.97 11.60  42.4     0     0  1210   230  1.06  0.91 147.7  32.1  4.51  0.00  0.00  0.00  0.00  0.00  0.00   2.0  0.00  0.00  0.00  0.00
 1975 203    71    58  19.0  -6.0 60.93  7.79  0.82  2.70 274.0  2.03 0.920  2.95  7364    14   732  6618   884  4809     0  0.00   845   487  2751    80 32.97 12.29  42.1     0     0  1210   229  1.08  0.93 142.1  34.8  5.20  0.00  0.00  0.00  0.00  0.00  0.00   2.0  0.00  0.00  0.00  0.00
 1975 204    72    59  16.5  -6.0 69.18  7.79  0.80  2.70 311.8  1.92 0.968  2.89  7669    14   741  6913   840  4885     0  0.00  1078   621  2869   109 32.97 12.89  42.2     0     0  1210   228  1.09  0.95 163.2  37.1  4.89  0.00  0.00  0.00  0.00  0.00  0.00   2.0  0.00  0.00  0.00  0.00
 1975 205    73    60  22.5  -6.0 71.60  7.79  0.79  2.70 301.0  1.83 1.013  2.84  7964    14   747  7203   802  4944     0  0.00  1322   753  2982   135 32.97 13.72  42.2     0     0  1210   228  1.11  0.96 183.9  38.3  4.54  0.00  0.00  0.00  0.00  0.00  0.00   2.0  0.00  0.17  0.00  0.00
 1975 206    74    61  23.5  -6.0 73.41  7.79  0.76  2.70 262.0  1.70 1.007  2.71  8223    14   750  7459   749  4986    51  0.01  1503   804  3224   171 32.97 14.60  44.5 20566 .0002  1210   227  1.13  0.98 164.6  38.8  5.18  0.00  0.00  0.00  0.00  0.00  0.00   2.0  0.00  0.23  0.00  0.00
 1975 207    75    62  21.5  -6.0 75.07  7.79  0.74  2.70 247.8  1.57 1.002  2.57  8468    14   752  7702   694  5102   149  0.02  1550   902  3405   208 32.97 15.41  46.4 20566 .0007  1210   226  1.15  0.98 155.4  40.4  5.72  0.00  0.00  0.00  0.00  0.00  0.00   2.0  0.00  0.10  0.00  0.00
 1975 208    76    63  25.5  -6.0 77.03  7.79  0.71  2.57 264.5  1.45 0.996  2.44  8730    14   754  7961   642  5173   323  0.04  1582  1076  3524   241 32.97 16.37  47.6 20566 .0016  1210   225  1.17  0.98 150.9  29.4  4.30  0.00  0.00  0.00  0.00  0.00  0.00   2.0  0.05  0.37  0.00  0.00
 1975 209    77    64  26.5  -6.0 79.03  7.79  0.67  2.30 216.9  1.30 0.990  2.29  8944    14   756  8174   581  5157   568  0.07  1586  1321  3531   282 32.97 17.35  48.2 20566 .0028  1210   224  1.19  0.98 147.5  34.3  5.16  0.00  0.00  0.00  0.00  0.00  0.00   2.0  0.15  0.43  0.00  0.00
 1975 210    78    65  25.0  -6.0 80.33  7.79  0.63  2.70 171.9  1.16 0.984  2.14  9114    14   757  8342   518  5065   871  0.10  1566  1624  3438   322 32.97 18.29  48.1 20566 .0042  1210   223  1.21  0.98 175.7  62.7  7.92  0.00  0.00  0.00  0.00  0.00  0.00   2.0  0.00  0.33  0.00  0.00
 1975 211    79    66  16.5  -6.0 80.78  7.79  0.59  2.70 140.4  1.05 0.981  2.03  9252    14   758  8480   471  5002  1101  0.13  1553  1854  3376   353 32.97 18.92  48.0 20566 .0054  1210   222  1.23  0.98 175.1  90.8 11.54  0.00  0.00  0.00  0.00  0.00  0.00   2.0  0.00  0.00  0.00  0.00
 1975 212    80    67  12.0  -6.0 81.10  7.79  0.57  2.70 118.7  1.00 0.978  1.98  9369    14   759  8596   450  4998  1226  0.14  1555  1979  3381   367 32.97 19.37  48.3 20566 .0060  1210   222  1.24  0.98 196.1  99.9 15.00  0.00  0.00  0.00  0.00  0.00  0.00   2.0  0.00  0.00  0.00  0.00
 1975 213    81    68  13.0  -6.0 81.45  7.79  0.56  2.70 117.4  0.96 0.975  1.94  9485    14   760  8711   435  4976  1373  0.16  1551  2126  3360   377 32.97 19.86  48.3 20566 .0067  1210   221  1.25  0.98 195.1  99.9 14.78  0.00  0.00  0.00  0.00  0.00  0.00   2.0  0.00  0.00  0.00  0.00
 1975 214    82    69  15.5  -6.0 81.87  7.79  0.54  2.70 199.9  0.92 0.972  1.89  9683    14   762  8907   418  4969  1581  0.18  1551  2334  3358   388 32.97 20.45  48.4 20566 .0077  1210   221  1.26  0.98 190.5  69.2  8.11  0.00  0.00  0.00  0.00  0.00  0.00   2.0  0.00  0.00  0.00  0.00
 1975 215    83    70  15.0  -6.0 82.27  7.79  0.52  2.70 129.9  0.87 0.969  1.84  9811    14   763  9035   397  4921  1777  0.20  1539  2530  3303   401 32.97 21.02  48.2 20566 .0086  1210   220  1.27  0.98 187.4  99.9 12.85  0.00  0.00  0.00  0.00  0.00  0.00   2.0  0.00  0.00  0.00  0.00
 1975 216    84    71  13.5  -6.0 82.64  7.79  0.51  2.70 152.4  0.83 0.966  1.80  9962    14   764  9184   378  4917  1935  0.21  1540  2688  3306   414 32.97 21.54  48.4 20566 .0094  1210   220  1.28  0.98 177.2  90.0 11.39  0.00  0.00  0.00  0.00  0.00  0.00   2.0  0.00  0.00  0.00  0.00
 1975 217    85    72  23.5  -6.0 83.27  7.79  0.49  2.70 189.3  0.79 0.962  1.75 10149    14   765  9370   360  4813  2262  0.24  1510  3015  3177   425 32.97 22.44  47.5 20566 .0110  1210   219  1.30  0.98 171.1  56.6  7.43  0.00  0.00  0.00  0.00  0.00  0.00   1.7  0.00  0.23  0.00  0.00
 1975 218    86    73  22.0  -6.0 83.86  7.79  0.46  2.70 191.4  0.72 0.957  1.67 10338    14   767  9557   329  4729  2568  0.27  1487  3321  3078   445 32.97 23.28  47.0 20566 .0125  1210   218  1.32  0.98 167.0  56.5  7.62  0.00  0.00  0.00  0.00  0.00  0.00   1.4  0.00  0.13  0.00  0.00
 1975 219    87    74  14.5  -6.0 84.25  7.79  0.42  2.70  85.7  0.65 0.955  1.61 10423    14   767  9641   299  4659  2750  0.29  1469  3503  2998   464 32.97 23.83  46.7 20566 .0134  1210   217  1.33  0.98 175.7  99.9 15.00  0.00  0.00  0.00  0.00  0.00  0.00   2.0  0.00  0.00  0.00  0.00
 1975 220    88    75  17.0  -6.0 84.71  7.79  0.40  2.70 144.6  0.61 0.951  1.56 10565    14   768  9783   280  4591  2987  0.31  1450  3740  2916   476 32.97 24.49  46.1 20566 .0145  1210   217  1.35  0.98 172.3  84.2 11.03  0.00  0.00  0.00  0.00  0.00  0.00   1.4  0.00  0.00  0.00  0.00
 1975 221    89    76  15.0  -6.0 85.11  7.79  0.38  2.70 144.3  0.56 0.949  1.50 10708    14   769  9924   257  4554  3182  0.32  1442  3935  2876   490 32.97 25.06  46.0 20566 .0155  1210   216  1.36  0.98 168.5  86.2 11.56  0.00  0.00  0.00  0.00  0.00  0.00   1.5  0.00  0.00  0.00  0.00
 1975 222    90    77  17.0  -6.0 85.57  7.79  0.35  2.70 109.3  0.51 0.945  1.46 10816    14   770 10031   236  4459  3419  0.34  1414  4171  2760   503 32.97 25.72  45.2 20566 .0166  1210   216  1.37  0.98 168.0  99.9 14.70  0.00  0.00  0.00  0.00  0.00  0.00   1.0  0.00  0.00  0.00  0.00
 1975 223    91    78  17.0  -6.0 86.03  7.79  0.32  2.70  90.3  0.46 0.942  1.40 10905    14   771 10120   213  4352  3655  0.36  1383  4408  2626   517 32.97 26.37  44.2 20566 .0178  1210   215  1.39  0.98 169.8  99.9 15.00  0.00  0.00  0.00  0.00  0.00  0.00   0.8  0.00  0.00  0.00  0.00
 1975 224    92    79  14.0  -6.0 86.41  7.79  0.29  2.48 115.8  0.41 0.940  1.35 11019    14   771 10233   189  4313  3825  0.37  1374  4578  2584   532 32.97 26.91  44.0 20566 .0186  1210   215  1.40  0.98 168.8  99.9 13.58  0.00  0.00  0.00  0.08  0.08  0.08   0.9  0.00  0.00  0.00  0.00
 1975 225    93    80  15.5  -6.0 86.82  7.79  0.27  2.56  94.3  0.36 0.937  1.30 11112    14   772 10326   170  4228  4034  0.39  1350  4787  2479   544 32.97 27.51  43.1 20566 .0196  1210   214  1.41  0.98 168.4  99.9 15.00  0.00  0.00  0.00  0.05  0.05  0.05   0.7  0.00  0.00  0.00  0.00
 1975 226    94    81  12.0  -6.0 87.15  7.79  0.24  2.13  75.1  0.32 0.935  1.25 11186    14   772 10399   149  4193  4159  0.40  1342  4912  2441   557 32.97 27.97  42.9 20566 .0202  1210   214  1.42  0.98 167.9  99.9 15.00  0.00  0.00  0.00  0.21  0.21  0.21   1.0  0.00  0.00  0.00  0.00
 1975 227    95    82  17.0  -6.0 87.60  7.79  0.21  2.22  63.1  0.28 0.932  1.21 11248    14   772 10461   132  4065  4395  0.42  1302  5148  2277   567 32.97 28.63  41.4 20566 .0214  1210   213  1.43  0.98 168.1  99.9 15.00  0.00  0.00  0.00  0.18  0.18  0.18   0.4  0.00  0.00  0.00  0.00
 1975 228    96    83  11.0  -6.0 87.90  7.79  0.18  1.86  44.9  0.23 0.931  1.16 11292    14   773 10505   108  4023  4500  0.43  1293  5253  2230   581 32.97 29.05  41.1 20566 .0219  1210   213  1.44  0.98 167.9  99.9 15.00  0.00  0.00  0.00  0.31  0.31  0.31   0.9  0.00  0.00  0.00  0.00
 1975 229    97    84  10.5  -6.0 88.18  7.79  0.15  1.92  19.4  0.20 0.929  1.12 11311    14   772 10524    92  3968  4596  0.44  1277  5349  2162   591 32.97 29.46  40.5 20566 .0223  1210   212  1.45  0.98 173.3  99.9 15.00  0.00  0.00  0.00  0.29  0.29  0.29   1.0  0.00  0.00  0.00  0.00
 1975 230    98    85  11.0  -6.0 88.48  7.79  0.13  2.00  33.0  0.16 0.925  1.09 11343    14   772 10556    78  3905  4701  0.45  1264  5454  2098   608 32.97 29.88  40.0 20566 .0229  1210   212  1.46  0.98 173.1  99.9 15.00  0.00  0.00  0.00  0.26  0.26  0.26   0.9  0.00  0.00  0.00  0.00
 1975 231    99    86  12.0  -6.0 88.80  7.79  0.11  2.07  25.3  0.13 0.920  1.05 11368    14   772 10581    62  3821  4826  0.46  1244  5579  2007   627 32.97 30.35  39.2 20566 .0235  1210   211  1.47  0.98 178.6  99.9 15.00  0.00  0.00  0.00  0.24  0.24  0.24   0.7  0.00  0.00  0.00  0.00
 1975 232   100    87  12.5  -6.0 89.14  7.79  0.08  1.69  17.8  0.09 0.916  1.01 11385    14   772 10599    45  3723  4962  0.47  1220  5715  1899   648 32.97 30.83  38.1 20566 .0241  1210   211  1.48  0.98 180.6  99.9 15.00  0.00  0.00  0.00  0.38  0.38  0.38   0.5  0.00  0.00  0.00  0.00
 1975 233   101    88  16.0  -6.0 89.57  7.79  0.05  1.26  12.3  0.06 0.910  0.97 11396    14   771 10611    27  3554  5185  0.49  1174  5938  1700   671 32.97 31.45  35.7 20566 .0252  1210   211  1.49  0.98 194.6  99.9 15.00  0.00  0.00  0.00  0.53  0.53  0.53   0.3  0.00  0.00  0.00  0.00
 1975 234   102    89  19.5  -6.0 90.18  7.79  0.01  0.66   3.0  0.01 0.903  0.91 11398    14   771 10614     3  3339  5456  0.51  1114  6209  1445   701 32.97 32.20  32.4 20566 .0265  1210   210  1.50  0.98 190.7  99.9 15.00  0.00  0.00  0.00  0.75  0.75  0.75   0.3  0.00  0.00  0.00  0.00
 1975 235   103    90     0     0     0     0     0     0     0     0     0     0     0     0     0     0     0     0     0     0     0     0     0     0     0     0     0     0     0     0     0     0     0     0     0     0     0     0     0     0     0     0     0     0     0     0     0
 1975 236   104    91     0     0     0     0     0     0     0     0     0     0     0     0     0     0     0     0     0     0     0     0     0     0     0     0     0     0     0     0     0     0     0     0     0     0     0     0     0     0     0     0     0     0     0     0     0
 1975 237   105    92     0     0     0     0     0     0     0     0     0     0     0     0     0     0     0     0     0     0     0     0     0     0     0     0     0     0     0     0     0     0     0     0     0     0     0     0     0     0     0     0     0     0     0     0     0
 1975 238   106    93     0     0     0     0     0     0     0     0     0     0     0     0     0     0     0     0     0     0     0     0     0     0     0     0     0     0     0     0     0     0     0     0     0     0     0     0     0     0     0     0     0     0     0     0     0
 1975 239   107    94     0     0     0     0     0     0     0     0     0     0     0     0     0     0     0     0     0     0     0     0     0     0     0     0     0     0     0     0     0     0     0     0     0     0     0     0     0     0     0     0     0     0     0     0     0
 1975 240   108    95     0     0     0     0     0     0     0     0     0     0     0     0     0     0     0     0     0     0     0     0     0     0     0     0     0     0     0     0     0     0     0     0     0     0     0     0     0     0     0     0     0     0     0     0     0
 1975 241   109    96     0     0     0     0     0     0     0     0     0     0     0     0     0     0     0     0     0     0     0     0     0     0     0     0     0     0     0     0     0     0     0     0     0     0     0     0     0     0     0     0     0     0     0     0     0
 1975 242   110    97     0     0     0     0     0     0     0     0     0     0     0     0     0     0     0     0     0     0     0     0     0     0     0     0     0     0     0     0     0     0     0     0     0     0     0     0     0     0     0     0     0     0     0     0     0
 1975 243   111    98     0     0     0     0     0     0     0     0     0     0     0     0     0     0     0     0     0     0     0     0     0     0     0     0     0     0     0     0     0     0     0     0     0     0     0     0     0     0     0     0     0     0     0     0     0
 1975 244   112    99     0     0     0     0     0     0     0     0     0     0     0     0     0     0     0     0     0     0     0     0     0     0     0     0     0     0     0     0     0     0     0     0     0     0     0     0     0     0     0     0     0     0     0     0     0
 1975 245   113   100     0     0     0     0     0     0     0     0     0     0     0     0     0     0     0     0     0     0     0     0     0     0     0     0     0     0     0     0     0     0     0     0     0     0     0     0     0     0     0     0     0     0     0     0     0
